MOL00000325-000046-03
     RDKit          3D

 22 24  0  0  0  0  0  0  0  0999 V2000
    7.1000    0.6558    1.3207 N   0  0  0  0  0  0  0  0  0  0  0  0
    6.6101   -0.1877    0.2367 C   0  0  0  0  0  0  0  0  0  0  0  0
    5.1237   -0.0309    0.0524 C   0  0  0  0  0  0  0  0  0  0  0  0
    4.2268   -0.8381    0.7608 C   0  0  0  0  0  0  0  0  0  0  0  0
    2.8436   -0.6750    0.6091 C   0  0  0  0  0  0  0  0  0  0  0  0
    2.3194    0.2996   -0.2463 C   0  0  0  0  0  0  0  0  0  0  0  0
    0.9460    0.5139   -0.4402 N   0  0  0  0  0  0  0  0  0  0  0  0
   -0.1345   -0.1294    0.1106 C   0  0  0  0  0  0  0  0  0  0  0  0
   -1.4273    0.1276   -0.1288 C   0  0  0  0  0  0  0  0  0  0  0  0
   -1.9109    1.1958   -1.0690 C   0  0  0  0  0  0  0  0  0  0  0  0
   -1.2268    1.9574   -1.7275 O   0  0  0  0  0  0  0  0  0  0  0  0
   -3.2893    1.1109   -1.0103 N   0  0  0  0  0  0  0  0  0  0  0  0
   -3.7152    0.1086   -0.1379 C   0  0  0  0  0  0  0  0  0  0  0  0
   -5.0243   -0.2431    0.1552 C   0  0  0  0  0  0  0  0  0  0  0  0
   -6.2429    0.4125   -0.4340 C   0  0  0  0  0  0  0  0  0  0  0  0
   -5.9317    1.4657   -1.3417 O   0  0  0  0  0  0  0  0  0  0  0  0
   -5.1846   -1.2963    1.0748 C   0  0  0  0  0  0  0  0  0  0  0  0
   -4.0767   -1.9459    1.6559 C   0  0  0  0  0  0  0  0  0  0  0  0
   -2.7715   -1.5638    1.3362 C   0  0  0  0  0  0  0  0  0  0  0  0
   -2.6059   -0.5307    0.4341 C   0  0  0  0  0  0  0  0  0  0  0  0
    3.2271    1.1102   -0.9446 C   0  0  0  0  0  0  0  0  0  0  0  0
    4.6096    0.9526   -0.7979 C   0  0  0  0  0  0  0  0  0  0  0  0
  1  2  1  0
  2  3  1  0
  3  4  2  0
  4  5  1  0
  5  6  2  0
  6  7  1  0
  7  8  1  0
  8  9  2  0
  9 10  1  0
 10 11  2  0
 10 12  1  0
 12 13  1  0
 13 14  2  0
 14 15  1  0
 15 16  1  0
 14 17  1  0
 17 18  2  0
 18 19  1  0
 19 20  2  0
  6 21  1  0
 21 22  2  0
 22  3  1  0
 20  9  1  0
 20 13  1  0
M  END
>  <energy>  (1) 
38.64

>  <full_id>  (1) 
MOL00000325-000046-03_1

>  <mol_id>  (1) 
MOL00000325-000046-03

>  <act_mol>  (1) 
0

>  <act_conf>  (1) 
0

$$$$
MOL00000189-000140-03
     RDKit          3D

 27 28  0  0  0  0  0  0  0  0999 V2000
    5.9191    1.2324   -3.3085 N   0  0  0  0  0  0  0  0  0  0  0  0
    5.3656    1.3374   -2.2938 C   0  0  0  0  0  0  0  0  0  0  0  0
    4.6812    1.4801   -1.0422 C   0  0  0  0  0  0  0  0  0  0  0  0
    4.5109    2.7490   -0.4778 C   0  0  0  0  0  0  0  0  0  0  0  0
    3.8530    2.8904    0.7451 C   0  0  0  0  0  0  0  0  0  0  0  0
    3.3551    1.7652    1.4060 C   0  0  0  0  0  0  0  0  0  0  0  0
    3.5076    0.4925    0.8397 C   0  0  0  0  0  0  0  0  0  0  0  0
    2.9993   -0.7384    1.5073 C   0  0  0  0  0  0  0  0  0  0  0  0
    3.4849   -1.8304    1.2349 O   0  0  0  0  0  0  0  0  0  0  0  0
    1.9510   -0.5766    2.3868 N   0  0  0  0  0  0  0  0  0  0  0  0
    1.2910   -1.7155    2.9980 C   0  0  0  0  0  0  0  0  0  0  0  0
    0.3080   -2.4037    2.0578 C   0  0  0  0  0  0  0  0  0  0  0  0
   -0.8775   -1.5179    1.7189 C   0  0  0  0  0  0  0  0  0  0  0  0
   -0.9772   -0.3619    2.1198 O   0  0  0  0  0  0  0  0  0  0  0  0
   -1.7939   -2.1667    0.9153 N   0  0  0  0  0  0  0  0  0  0  0  0
   -2.9827   -1.6876    0.4038 C   0  0  0  0  0  0  0  0  0  0  0  0
   -3.5020   -0.4615    0.5825 C   0  0  0  0  0  0  0  0  0  0  0  0
   -4.7739   -0.0656   -0.0133 C   0  0  0  0  0  0  0  0  0  0  0  0
   -5.2640    1.3312    0.2447 C   0  0  0  0  0  0  0  0  0  0  0  0
   -5.4364    1.5688    1.5696 F   0  0  0  0  0  0  0  0  0  0  0  0
   -6.4572    1.5816   -0.3552 F   0  0  0  0  0  0  0  0  0  0  0  0
   -4.3927    2.2640   -0.2161 F   0  0  0  0  0  0  0  0  0  0  0  0
   -5.4452   -0.9580   -0.7604 C   0  0  0  0  0  0  0  0  0  0  0  0
   -4.9475   -2.2199   -0.9636 N   0  0  0  0  0  0  0  0  0  0  0  0
   -3.7595   -2.6690   -0.4412 C   0  0  0  0  0  0  0  0  0  0  0  0
   -3.3337   -3.8048   -0.6362 O   0  0  0  0  0  0  0  0  0  0  0  0
    4.1825    0.3530   -0.3812 C   0  0  0  0  0  0  0  0  0  0  0  0
  1  2  3  0
  2  3  1  0
  3  4  2  0
  4  5  1  0
  5  6  2  0
  6  7  1  0
  7  8  1  0
  8  9  2  0
  8 10  1  0
 10 11  1  0
 11 12  1  0
 12 13  1  0
 13 14  2  0
 13 15  1  0
 15 16  1  0
 16 17  2  0
 17 18  1  0
 18 19  1  0
 19 20  1  0
 19 21  1  0
 19 22  1  0
 18 23  2  0
 23 24  1  0
 24 25  1  0
 25 26  2  0
  7 27  2  0
 27  3  1  0
 25 16  1  0
M  END
>  <energy>  (2) 
37.47

>  <full_id>  (2) 
MOL00000189-000140-03_1

>  <mol_id>  (2) 
MOL00000189-000140-03

>  <act_mol>  (2) 
0

>  <act_conf>  (2) 
0

$$$$
MOL00000097-000077-02
     RDKit          3D

 27 31  0  0  0  0  0  0  0  0999 V2000
   -5.6007    0.3641    3.4400 C   0  0  0  0  0  0  0  0  0  0  0  0
   -5.7458    0.2819    2.0271 O   0  0  0  0  0  0  0  0  0  0  0  0
   -4.5907    0.2102    1.2905 C   0  0  0  0  0  0  0  0  0  0  0  0
   -4.7963    0.1310   -0.0960 C   0  0  0  0  0  0  0  0  0  0  0  0
   -3.7312    0.0510   -1.0040 C   0  0  0  0  0  0  0  0  0  0  0  0
   -3.8200   -0.0292   -2.3621 O   0  0  0  0  0  0  0  0  0  0  0  0
   -5.1298   -0.0321   -2.9163 C   0  0  0  0  0  0  0  0  0  0  0  0
   -2.4561    0.0556   -0.4372 C   0  0  0  0  0  0  0  0  0  0  0  0
   -1.2063   -0.0076   -0.9967 N   0  0  0  0  0  0  0  0  0  0  0  0
   -0.2646    0.0312    0.0080 C   0  0  0  0  0  0  0  0  0  0  0  0
    1.1227   -0.0209   -0.3165 C   0  0  0  0  0  0  0  0  0  0  0  0
    2.0201    0.0189    0.6860 C   0  0  0  0  0  0  0  0  0  0  0  0
    3.4593   -0.0305    0.4268 C   0  0  0  0  0  0  0  0  0  0  0  0
    4.3855    0.0113    1.4750 C   0  0  0  0  0  0  0  0  0  0  0  0
    5.7246   -0.0399    1.1470 C   0  0  0  0  0  0  0  0  0  0  0  0
    6.1527   -0.1290   -0.1581 C   0  0  0  0  0  0  0  0  0  0  0  0
    5.2691   -0.1724   -1.2152 C   0  0  0  0  0  0  0  0  0  0  0  0
    3.9080   -0.1220   -0.9086 C   0  0  0  0  0  0  0  0  0  0  0  0
    2.9635   -0.1624   -1.9401 N   0  0  0  0  0  0  0  0  0  0  0  0
    1.6087   -0.1183   -1.7358 C   0  0  0  0  0  0  0  0  0  0  0  0
    0.8331   -0.1580   -2.6904 O   0  0  0  0  0  0  0  0  0  0  0  0
    7.5087   -0.1667   -0.2568 O   0  0  0  0  0  0  0  0  0  0  0  0
    7.8866   -0.0913    1.1341 C   0  0  0  0  0  0  0  0  0  0  0  0
    6.7585   -0.0106    2.0300 O   0  0  0  0  0  0  0  0  0  0  0  0
   -0.8647    0.1166    1.1849 N   0  0  0  0  0  0  0  0  0  0  0  0
   -2.2143    0.1324    0.9244 C   0  0  0  0  0  0  0  0  0  0  0  0
   -3.2942    0.2117    1.8157 C   0  0  0  0  0  0  0  0  0  0  0  0
  1  2  1  0
  2  3  1  0
  3  4  2  0
  4  5  1  0
  5  6  1  0
  6  7  1  0
  5  8  2  0
  8  9  1  0
  9 10  1  0
 10 11  1  0
 11 12  2  0
 12 13  1  0
 13 14  2  0
 14 15  1  0
 15 16  2  0
 16 17  1  0
 17 18  2  0
 18 19  1  0
 19 20  1  0
 20 21  2  0
 16 22  1  0
 22 23  1  0
 23 24  1  0
 10 25  2  0
 25 26  1  0
 26 27  2  0
 27  3  1  0
 26  8  1  0
 20 11  1  0
 18 13  1  0
 24 15  1  0
M  END
>  <energy>  (3) 
15.26

>  <full_id>  (3) 
MOL00000097-000077-02_1

>  <mol_id>  (3) 
MOL00000097-000077-02

>  <act_mol>  (3) 
0

>  <act_conf>  (3) 
0

$$$$
MOL00000183-003763-02
     RDKit          3D

 29 33  0  0  0  0  0  0  0  0999 V2000
   -2.2772    2.7768   -1.3429 O   0  0  0  0  0  0  0  0  0  0  0  0
   -2.7813    1.8349   -0.7571 C   0  0  0  0  0  0  0  0  0  0  0  0
   -4.1260    1.5839   -0.6009 N   0  0  0  0  0  0  0  0  0  0  0  0
   -4.3544    0.3795    0.0645 C   0  0  0  0  0  0  0  0  0  0  0  0
   -5.5911   -0.1905    0.3521 C   0  0  0  0  0  0  0  0  0  0  0  0
   -6.8395    0.5050   -0.0321 C   0  0  0  0  0  0  0  0  0  0  0  0
   -6.9115    1.5705   -0.6179 O   0  0  0  0  0  0  0  0  0  0  0  0
   -7.9448   -0.1670    0.3351 O   0  0  0  0  0  0  0  0  0  0  0  0
   -5.5956   -1.4309    0.9988 C   0  0  0  0  0  0  0  0  0  0  0  0
   -4.3861   -2.0627    1.3246 C   0  0  0  0  0  0  0  0  0  0  0  0
   -3.1539   -1.4661    1.0211 C   0  0  0  0  0  0  0  0  0  0  0  0
   -3.1329   -0.2287    0.4017 C   0  0  0  0  0  0  0  0  0  0  0  0
   -2.0744    0.6849   -0.0692 C   0  0  0  0  0  0  0  0  0  0  0  0
   -0.7301    0.7285   -0.0191 C   0  0  0  0  0  0  0  0  0  0  0  0
    0.0755    1.7112   -0.5798 N   0  0  0  0  0  0  0  0  0  0  0  0
    1.4029    1.3179   -0.5682 C   0  0  0  0  0  0  0  0  0  0  0  0
    2.4819    1.9971   -1.0927 C   0  0  0  0  0  0  0  0  0  0  0  0
    3.7624    1.4544   -0.9224 C   0  0  0  0  0  0  0  0  0  0  0  0
    3.9578    0.2466   -0.2146 C   0  0  0  0  0  0  0  0  0  0  0  0
    5.2749   -0.2945   -0.0544 N   0  0  0  0  0  0  0  0  0  0  0  0
    5.6174   -1.4537    0.6212 C   0  0  0  0  0  0  0  0  0  0  0  0
    6.9808   -1.6415    0.5540 C   0  0  0  0  0  0  0  0  0  0  0  0
    7.5113   -0.5697   -0.1858 C   0  0  0  0  0  0  0  0  0  0  0  0
    6.4546    0.2380   -0.5464 C   0  0  0  0  0  0  0  0  0  0  0  0
    2.8456   -0.4158    0.3356 C   0  0  0  0  0  0  0  0  0  0  0  0
    1.5850    0.1387    0.1588 C   0  0  0  0  0  0  0  0  0  0  0  0
    0.2283   -0.2861    0.6125 C   0  0  0  0  0  0  0  0  0  0  0  0
   -0.1125   -1.2573    1.3960 N   0  0  0  0  0  0  0  0  0  0  0  0
    0.9649   -2.0076    1.8618 O   0  0  0  0  0  0  0  0  0  0  0  0
  1  2  2  0
  2  3  1  0
  3  4  1  0
  4  5  2  0
  5  6  1  0
  6  7  2  0
  6  8  1  0
  5  9  1  0
  9 10  2  0
 10 11  1  0
 11 12  2  0
 12 13  1  0
 13 14  2  0
 14 15  1  0
 15 16  1  0
 16 17  2  0
 17 18  1  0
 18 19  2  0
 19 20  1  0
 20 21  1  0
 21 22  2  0
 22 23  1  0
 23 24  2  0
 19 25  1  0
 25 26  2  0
 26 27  1  0
 27 28  2  0
 28 29  1  0
 13  2  1  0
 27 14  1  0
 12  4  1  0
 26 16  1  0
 24 20  1  0
M  END
>  <energy>  (4) 
107.51

>  <full_id>  (4) 
MOL00000183-003763-02_1

>  <mol_id>  (4) 
MOL00000183-003763-02

>  <act_mol>  (4) 
0

>  <act_conf>  (4) 
0

$$$$
MOL00000223-000088-04
     RDKit          3D

 27 29  0  0  0  0  0  0  0  0999 V2000
   -2.3361   -1.9226    5.0830 C   0  0  0  0  0  0  0  0  0  0  0  0
   -1.1476   -1.0956    4.6297 C   0  0  0  0  0  0  0  0  0  0  0  0
   -1.0202   -1.1547    3.2020 O   0  0  0  0  0  0  0  0  0  0  0  0
   -1.7579   -0.2498    2.5123 C   0  0  0  0  0  0  0  0  0  0  0  0
   -2.4948    0.6053    2.9708 O   0  0  0  0  0  0  0  0  0  0  0  0
   -1.5249   -0.4671    1.0703 C   0  0  0  0  0  0  0  0  0  0  0  0
   -0.2017   -0.3987    0.6019 C   0  0  0  0  0  0  0  0  0  0  0  0
    0.0939   -0.5830   -0.7597 C   0  0  0  0  0  0  0  0  0  0  0  0
    1.5208   -0.5145   -1.2615 C   0  0  2  0  0  0  0  0  0  0  0  0
    2.3231   -1.5481   -0.6521 N   0  0  0  0  0  0  0  0  0  0  0  0
    3.6950   -1.5272   -0.7330 C   0  0  0  0  0  0  0  0  0  0  0  0
    4.3686   -2.5413   -0.5932 O   0  0  0  0  0  0  0  0  0  0  0  0
    4.2313   -0.2163   -0.9744 C   0  0  0  0  0  0  0  0  0  0  0  0
    3.4133    0.9155   -1.0819 C   0  0  0  0  0  0  0  0  0  0  0  0
    4.1012    2.0260   -1.3118 N   0  0  0  0  0  0  0  0  0  0  0  0
    5.3811    1.6006   -1.3227 N   0  0  0  0  0  0  0  0  0  0  0  0
    5.5182    0.2482   -1.1360 C   0  0  0  0  0  0  0  0  0  0  0  0
    6.8272   -0.4389   -1.1195 C   0  0  0  0  0  0  0  0  0  0  0  0
    2.0818    0.7858   -0.9655 N   0  0  0  0  0  0  0  0  0  0  0  0
   -0.9637   -0.8381   -1.6418 C   0  0  0  0  0  0  0  0  0  0  0  0
   -2.2812   -0.9073   -1.1751 C   0  0  0  0  0  0  0  0  0  0  0  0
   -2.5812   -0.7121    0.1807 C   0  0  0  0  0  0  0  0  0  0  0  0
   -4.2915   -0.8863    0.6780 S   0  0  0  0  0  0  0  0  0  0  0  0
   -4.7974    0.8675    0.6639 C   0  0  0  0  0  0  0  0  0  0  0  0
   -5.1341    1.3598   -0.7248 C   0  0  0  0  0  0  0  0  0  0  0  0
   -5.0048    0.7894   -1.7954 O   0  0  0  0  0  0  0  0  0  0  0  0
   -5.6311    2.6177   -0.6987 O   0  0  0  0  0  0  0  0  0  0  0  0
  1  2  1  0
  2  3  1  0
  3  4  1  0
  4  5  2  0
  4  6  1  0
  6  7  2  0
  7  8  1  0
  9  8  1  1
  9 10  1  0
 10 11  1  0
 11 12  2  0
 11 13  1  0
 13 14  1  0
 14 15  2  0
 15 16  1  0
 16 17  1  0
 17 18  1  0
 14 19  1  0
  8 20  2  0
 20 21  1  0
 21 22  2  0
 22 23  1  0
 23 24  1  0
 24 25  1  0
 25 26  2  0
 25 27  1  0
 22  6  1  0
 19  9  1  0
 17 13  2  0
M  END
>  <energy>  (5) 
-107.23

>  <full_id>  (5) 
MOL00000223-000088-04_1

>  <mol_id>  (5) 
MOL00000223-000088-04

>  <act_mol>  (5) 
0

>  <act_conf>  (5) 
0

$$$$
MOL00000110-000115-04
     RDKit          3D

 30 32  0  0  0  0  0  0  0  0999 V2000
   -7.9442   -3.4957    0.6702 N   0  0  0  0  0  0  0  0  0  0  0  0
   -7.3558   -2.5107    0.4976 C   0  0  0  0  0  0  0  0  0  0  0  0
   -6.6371   -1.2883    0.2852 C   0  0  0  0  0  0  0  0  0  0  0  0
   -7.3342   -0.0876    0.1017 C   0  0  0  0  0  0  0  0  0  0  0  0
   -6.6402    1.1095   -0.1071 C   0  0  0  0  0  0  0  0  0  0  0  0
   -5.2443    1.1198   -0.1263 C   0  0  0  0  0  0  0  0  0  0  0  0
   -4.5302    2.2917   -0.3577 N   0  0  0  0  0  0  0  0  0  0  0  0
   -3.1627    2.3370   -0.3464 C   0  0  0  0  0  0  0  0  0  0  0  0
   -2.6784    3.6141   -0.5249 O   0  0  0  0  0  0  0  0  0  0  0  0
   -2.3790    1.2489   -0.1728 C   0  0  0  0  0  0  0  0  0  0  0  0
   -0.8906    1.3952   -0.1627 C   0  0  0  0  0  0  0  0  0  0  0  0
   -0.3889    2.4749   -0.4765 O   0  0  0  0  0  0  0  0  0  0  0  0
   -0.1864    0.2531    0.1451 N   0  0  0  0  0  0  0  0  0  0  0  0
    1.2285    0.1445    0.1890 C   0  0  0  0  0  0  0  0  0  0  0  0
    1.8132   -1.0170   -0.3491 C   0  0  0  0  0  0  0  0  0  0  0  0
    0.8328   -2.2695   -1.0406 Cl  0  0  0  0  0  0  0  0  0  0  0  0
    3.2024   -1.1904   -0.3820 C   0  0  0  0  0  0  0  0  0  0  0  0
    4.0429   -0.2150    0.1470 C   0  0  0  0  0  0  0  0  0  0  0  0
    5.4439   -0.3050    0.1483 N   0  0  0  0  0  0  0  0  0  0  0  0
    6.2461   -1.3041   -0.3726 C   0  0  0  0  0  0  0  0  0  0  0  0
    5.8722   -2.3297   -0.9311 O   0  0  0  0  0  0  0  0  0  0  0  0
    7.7378   -1.0225   -0.1382 C   0  0  0  0  0  0  0  0  0  0  0  0
    7.9784    0.4196    0.1017 N   0  0  0  0  0  0  0  0  0  0  0  0
    3.4745    0.9172    0.7363 C   0  0  0  0  0  0  0  0  0  0  0  0
    2.0825    1.0923    0.7765 C   0  0  0  0  0  0  0  0  0  0  0  0
    1.5186    2.4101    1.7514 Cl  0  0  0  0  0  0  0  0  0  0  0  0
   -3.0718   -0.0616    0.0078 C   0  0  0  0  0  0  0  0  0  0  0  0
   -2.4380   -1.1091    0.1149 O   0  0  0  0  0  0  0  0  0  0  0  0
   -4.5543   -0.0868    0.0499 C   0  0  0  0  0  0  0  0  0  0  0  0
   -5.2404   -1.2895    0.2574 C   0  0  0  0  0  0  0  0  0  0  0  0
  1  2  3  0
  2  3  1  0
  3  4  2  0
  4  5  1  0
  5  6  2  0
  6  7  1  0
  7  8  1  0
  8  9  1  0
  8 10  2  0
 10 11  1  0
 11 12  2  0
 11 13  1  0
 13 14  1  0
 14 15  2  0
 15 16  1  0
 15 17  1  0
 17 18  2  0
 18 19  1  0
 19 20  1  0
 20 21  2  0
 20 22  1  0
 22 23  1  0
 18 24  1  0
 24 25  2  0
 25 26  1  0
 10 27  1  0
 27 28  2  0
 27 29  1  0
 29 30  2  0
 30  3  1  0
 29  6  1  0
 25 14  1  0
M  END
>  <energy>  (6) 
49.19

>  <full_id>  (6) 
MOL00000110-000115-04_1

>  <mol_id>  (6) 
MOL00000110-000115-04

>  <act_mol>  (6) 
0

>  <act_conf>  (6) 
0

$$$$
MOL00000268-001922-04
     RDKit          3D

 33 36  0  0  0  0  0  0  0  0999 V2000
    6.0983    0.5563   -2.9697 C   0  0  0  0  0  0  0  0  0  0  0  0
    4.8299    0.3898   -2.3460 O   0  0  0  0  0  0  0  0  0  0  0  0
    4.8135   -0.2725   -1.1403 C   0  0  0  0  0  0  0  0  0  0  0  0
    5.9409   -0.7601   -0.4752 C   0  0  0  0  0  0  0  0  0  0  0  0
    5.7945   -1.4026    0.7513 C   0  0  0  0  0  0  0  0  0  0  0  0
    6.9243   -1.8636    1.3616 O   0  0  0  0  0  0  0  0  0  0  0  0
    4.5442   -1.5627    1.3362 C   0  0  0  0  0  0  0  0  0  0  0  0
    3.4140   -1.0775    0.6769 C   0  0  0  0  0  0  0  0  0  0  0  0
    3.5299   -0.4529   -0.5744 C   0  0  0  0  0  0  0  0  0  0  0  0
    2.3990    0.1431   -1.2288 N   0  0  0  0  0  0  0  0  0  0  0  0
    1.1822   -0.4235   -0.9638 N   0  0  0  0  0  0  0  0  0  0  0  0
    0.3108    0.2712   -0.2722 C   0  0  0  0  0  0  0  0  0  0  0  0
    0.5120    1.5996    0.2561 C   0  0  0  0  0  0  0  0  0  0  0  0
   -0.3870    2.3123    0.9123 N   0  0  0  0  0  0  0  0  0  0  0  0
    0.2219    3.5050    1.2252 N   0  0  0  0  0  0  0  0  0  0  0  0
    1.4692    3.5340    0.7772 N   0  0  0  0  0  0  0  0  0  0  0  0
    1.6473    2.3484    0.1799 N   0  0  0  0  0  0  0  0  0  0  0  0
   -1.0040   -0.3541    0.0276 C   0  0  0  0  0  0  0  0  0  0  0  0
   -1.9783   -0.2793   -0.8886 C   0  0  0  0  0  0  0  0  0  0  0  0
   -1.7386    0.3776   -2.0827 O   0  0  0  0  0  0  0  0  0  0  0  0
   -3.3227   -0.8517   -0.6189 C   0  0  0  0  0  0  0  0  0  0  0  0
   -4.4453   -0.7550   -1.4804 C   0  0  0  0  0  0  0  0  0  0  0  0
   -4.3913   -0.1144   -2.8131 C   0  0  0  0  0  0  0  0  0  0  0  0
   -5.3924    0.9635   -3.1329 C   0  0  0  0  0  0  0  0  0  0  0  0
   -3.5403   -0.4917   -3.6166 O   0  0  0  0  0  0  0  0  0  0  0  0
   -5.6897   -1.3079   -1.1359 C   0  0  0  0  0  0  0  0  0  0  0  0
   -5.8501   -1.9557    0.0772 C   0  0  0  0  0  0  0  0  0  0  0  0
   -4.7710   -2.0508    0.9500 C   0  0  0  0  0  0  0  0  0  0  0  0
   -3.5112   -1.5053    0.6273 C   0  0  0  0  0  0  0  0  0  0  0  0
   -2.4310   -1.6013    1.5640 N   0  0  0  0  0  0  0  0  0  0  0  0
   -2.6244   -2.2802    2.8389 C   0  0  0  0  0  0  0  0  0  0  0  0
   -1.1820   -1.0466    1.3159 C   0  0  0  0  0  0  0  0  0  0  0  0
   -0.2363   -1.1181    2.1011 O   0  0  0  0  0  0  0  0  0  0  0  0
  1  2  1  0
  2  3  1  0
  3  4  2  0
  4  5  1  0
  5  6  1  0
  5  7  2  0
  7  8  1  0
  8  9  2  0
  9 10  1  0
 10 11  1  0
 11 12  2  0
 12 13  1  0
 13 14  2  0
 14 15  1  0
 15 16  2  0
 16 17  1  0
 12 18  1  0
 18 19  2  0
 19 20  1  0
 19 21  1  0
 21 22  2  0
 22 23  1  0
 23 24  1  0
 23 25  2  0
 22 26  1  0
 26 27  2  0
 27 28  1  0
 28 29  2  0
 29 30  1  0
 30 31  1  0
 30 32  1  0
 32 33  2  0
  9  3  1  0
 17 13  1  0
 32 18  1  0
 29 21  1  0
M  END
>  <energy>  (7) 
80.76

>  <full_id>  (7) 
MOL00000268-001922-04_1

>  <mol_id>  (7) 
MOL00000268-001922-04

>  <act_mol>  (7) 
0

>  <act_conf>  (7) 
0

$$$$
MOL00000168-000031-03
     RDKit          3D

 30 32  0  0  0  0  0  0  0  0999 V2000
   -7.8224    0.7916   -1.4541 C   0  0  0  0  0  0  0  0  0  0  0  0
   -6.3033    0.9111   -1.5598 C   0  0  0  0  0  0  0  0  0  0  0  0
   -5.8999    1.4383   -2.9335 C   0  0  0  0  0  0  0  0  0  0  0  0
   -5.7124   -0.3981   -1.3390 N   0  0  0  0  0  0  0  0  0  0  0  0
   -4.3991   -0.6455   -1.0589 C   0  0  0  0  0  0  0  0  0  0  0  0
   -3.5498    0.1870   -0.5526 N   0  0  0  0  0  0  0  0  0  0  0  0
   -3.9428   -1.9966   -1.3636 C   0  0  0  0  0  0  0  0  0  0  0  0
   -4.6591   -3.0547   -1.9931 C   0  0  0  0  0  0  0  0  0  0  0  0
   -5.9219   -3.0118   -2.4429 O   0  0  0  0  0  0  0  0  0  0  0  0
   -4.0761   -4.2238   -2.1951 N   0  0  0  0  0  0  0  0  0  0  0  0
   -2.5294   -4.0946   -1.5930 S   0  0  0  0  0  0  0  0  0  0  0  0
   -2.6713   -2.4785   -1.0756 C   0  0  0  0  0  0  0  0  0  0  0  0
   -1.6447   -1.7766   -0.4699 N   0  0  0  0  0  0  0  0  0  0  0  0
   -0.3943   -2.2526   -0.1424 C   0  0  0  0  0  0  0  0  0  0  0  0
    0.0150   -3.3994   -0.2822 O   0  0  0  0  0  0  0  0  0  0  0  0
    0.5207   -1.2445    0.4707 C   0  0  0  0  0  0  0  0  0  0  0  0
    1.4786   -1.6870    1.3898 C   0  0  0  0  0  0  0  0  0  0  0  0
    2.3576   -0.7794    1.9865 C   0  0  0  0  0  0  0  0  0  0  0  0
    2.3107    0.5816    1.6540 C   0  0  0  0  0  0  0  0  0  0  0  0
    3.2430    1.5758    2.3061 C   0  0  0  0  0  0  0  0  0  0  0  0
    4.6877    1.1187    2.3897 C   0  0  0  0  0  0  0  0  0  0  0  0
    5.1571    0.7155    3.4554 O   0  0  0  0  0  0  0  0  0  0  0  0
    5.5595    1.1555    1.1733 C   0  0  0  0  0  0  0  0  0  0  0  0
    5.1017    1.5846   -0.0783 C   0  0  0  0  0  0  0  0  0  0  0  0
    5.9655    1.5960   -1.1780 C   0  0  0  0  0  0  0  0  0  0  0  0
    7.2887    1.1819   -1.0361 C   0  0  0  0  0  0  0  0  0  0  0  0
    7.7535    0.7538    0.2048 C   0  0  0  0  0  0  0  0  0  0  0  0
    6.8932    0.7402    1.3046 C   0  0  0  0  0  0  0  0  0  0  0  0
    1.3458    1.0207    0.7356 C   0  0  0  0  0  0  0  0  0  0  0  0
    0.4629    0.1149    0.1391 C   0  0  0  0  0  0  0  0  0  0  0  0
  2  1  1  0
  2  3  1  0
  2  4  1  0
  4  5  1  0
  5  6  2  0
  5  7  1  0
  7  8  1  0
  8  9  1  0
  8 10  2  0
 10 11  1  0
 11 12  1  0
 12 13  1  0
 13 14  1  0
 14 15  2  0
 14 16  1  0
 16 17  2  0
 17 18  1  0
 18 19  2  0
 19 20  1  0
 20 21  1  0
 21 22  2  0
 21 23  1  0
 23 24  2  0
 24 25  1  0
 25 26  2  0
 26 27  1  0
 27 28  2  0
 19 29  1  0
 29 30  2  0
 12  7  2  0
 30 16  1  0
 28 23  1  0
M  END
>  <energy>  (8) 
3.06

>  <full_id>  (8) 
MOL00000168-000031-03_1

>  <mol_id>  (8) 
MOL00000168-000031-03

>  <act_mol>  (8) 
0

>  <act_conf>  (8) 
0

$$$$
MOL00000489-000087-02
     RDKit          3D

 24 25  0  0  0  0  0  0  0  0999 V2000
    4.7171    1.4521   -1.1488 C   0  0  0  0  0  0  0  0  0  0  0  0
    4.3564    0.0703   -1.1408 O   0  0  0  0  0  0  0  0  0  0  0  0
    3.0220   -0.1544   -1.2626 C   0  0  0  0  0  0  0  0  0  0  0  0
    2.1591    0.7100   -1.3889 O   0  0  0  0  0  0  0  0  0  0  0  0
    2.7022   -1.6254   -1.1864 C   0  0  0  0  0  0  0  0  0  0  0  0
    2.2959   -2.0819    0.1985 C   0  0  0  0  0  0  0  0  0  0  0  0
    3.1135   -3.0410    0.8299 C   0  0  0  0  0  0  0  0  0  0  0  0
    2.7871   -3.5488    2.0845 C   0  0  0  0  0  0  0  0  0  0  0  0
    1.6378   -3.1076    2.7255 C   0  0  0  0  0  0  0  0  0  0  0  0
    0.8165   -2.1551    2.1166 C   0  0  0  0  0  0  0  0  0  0  0  0
    1.1277   -1.6274    0.8568 C   0  0  0  0  0  0  0  0  0  0  0  0
    0.3247   -0.6343    0.2446 N   0  0  0  0  0  0  0  0  0  0  0  0
   -0.9099   -0.1598    0.6559 C   0  0  0  0  0  0  0  0  0  0  0  0
   -1.5963   -0.6126    1.5694 O   0  0  0  0  0  0  0  0  0  0  0  0
   -1.4234    0.9911   -0.1819 C   0  0  2  0  0  0  0  0  0  0  0  0
   -1.9926    2.0636    0.6869 C   0  0  0  0  0  0  0  0  0  0  0  0
   -1.2880    2.7981    1.3780 O   0  0  0  0  0  0  0  0  0  0  0  0
   -3.3458    2.2118    0.6832 N   0  0  0  0  0  0  0  0  0  0  0  0
   -4.2218    1.6553   -0.1979 C   0  0  0  0  0  0  0  0  0  0  0  0
   -5.3923    2.0309   -0.1976 O   0  0  0  0  0  0  0  0  0  0  0  0
   -3.7079    0.7326   -1.0852 N   0  0  0  0  0  0  0  0  0  0  0  0
   -4.6184    0.1610   -2.0614 C   0  0  0  0  0  0  0  0  0  0  0  0
   -2.3573    0.4666   -1.2313 C   0  0  0  0  0  0  0  0  0  0  0  0
   -1.9063   -0.1835   -2.1796 O   0  0  0  0  0  0  0  0  0  0  0  0
  1  2  1  0
  2  3  1  0
  3  4  2  0
  3  5  1  0
  5  6  1  0
  6  7  2  0
  7  8  1  0
  8  9  2  0
  9 10  1  0
 10 11  2  0
 11 12  1  0
 12 13  1  0
 13 14  2  0
 15 13  1  1
 15 16  1  0
 16 17  2  0
 16 18  1  0
 18 19  1  0
 19 20  2  0
 19 21  1  0
 21 22  1  0
 21 23  1  0
 23 24  2  0
 11  6  1  0
 23 15  1  0
M  END
>  <energy>  (9) 
-130.43

>  <full_id>  (9) 
MOL00000489-000087-02_1

>  <mol_id>  (9) 
MOL00000489-000087-02

>  <act_mol>  (9) 
0

>  <act_conf>  (9) 
0

$$$$
MOL00000446-003569-02
     RDKit          3D

 31 34  0  0  0  0  0  0  0  0999 V2000
   10.3191   -0.1384    0.6359 C   0  0  0  0  0  0  0  0  0  0  0  0
    9.1401    0.4772   -0.0557 C   0  0  0  0  0  0  0  0  0  0  0  0
    9.3311    1.3084   -1.1541 C   0  0  0  0  0  0  0  0  0  0  0  0
    8.2171    1.8620   -1.7751 C   0  0  0  0  0  0  0  0  0  0  0  0
    6.9492    1.5745   -1.2831 C   0  0  0  0  0  0  0  0  0  0  0  0
    6.8356    0.7402   -0.1755 C   0  0  0  0  0  0  0  0  0  0  0  0
    5.4836    0.3830    0.3748 C   0  0  0  0  0  0  0  0  0  0  0  0
    4.9899   -0.9371   -0.2072 C   0  0  0  0  0  0  0  0  0  0  0  0
    3.6748   -1.2517    0.2869 O   0  0  0  0  0  0  0  0  0  0  0  0
    2.6440   -0.6373   -0.3544 C   0  0  0  0  0  0  0  0  0  0  0  0
    2.7871    0.1528   -1.2741 O   0  0  0  0  0  0  0  0  0  0  0  0
    1.4807   -1.0601    0.2213 N   0  0  0  0  0  0  0  0  0  0  0  0
    0.1595   -0.6991   -0.0989 C   0  0  0  0  0  0  0  0  0  0  0  0
   -0.1718    0.1975   -1.1160 C   0  0  0  0  0  0  0  0  0  0  0  0
   -1.5070    0.5163   -1.3868 C   0  0  0  0  0  0  0  0  0  0  0  0
   -1.9053    1.6219   -2.6418 Cl  0  0  0  0  0  0  0  0  0  0  0  0
   -2.5040   -0.0844   -0.6144 C   0  0  0  0  0  0  0  0  0  0  0  0
   -3.8708    0.0365   -0.6570 N   0  0  0  0  0  0  0  0  0  0  0  0
   -4.4760   -0.7358    0.3053 C   0  0  0  0  0  0  0  0  0  0  0  0
   -5.9095   -0.8521    0.5347 C   0  0  0  0  0  0  0  0  0  0  0  0
   -6.3507   -1.6474    1.3666 O   0  0  0  0  0  0  0  0  0  0  0  0
   -6.7877   -0.0459   -0.2306 N   0  0  0  0  0  0  0  0  0  0  0  0
   -8.2282   -0.1183    0.0373 C   0  0  0  0  0  0  0  0  0  0  0  0
   -9.0423    0.1132   -1.2326 C   0  0  0  0  0  0  0  0  0  0  0  0
   -8.5558    1.3525   -1.9788 C   0  0  0  0  0  0  0  0  0  0  0  0
   -7.0468    1.2789   -2.2033 C   0  0  0  0  0  0  0  0  0  0  0  0
   -6.3321    1.1241   -0.9298 N   0  0  0  0  0  0  0  0  0  0  0  0
   -3.4492   -1.3844    0.9748 C   0  0  0  0  0  0  0  0  0  0  0  0
   -2.2100   -0.9805    0.4081 C   0  0  0  0  0  0  0  0  0  0  0  0
   -0.8599   -1.2922    0.6673 C   0  0  0  0  0  0  0  0  0  0  0  0
    7.9113    0.1854    0.4340 N   0  0  0  0  0  0  0  0  0  0  0  0
  1  2  1  0
  2  3  2  0
  3  4  1  0
  4  5  2  0
  5  6  1  0
  6  7  1  0
  7  8  1  0
  8  9  1  0
  9 10  1  0
 10 11  2  0
 10 12  1  0
 12 13  1  0
 13 14  2  0
 14 15  1  0
 15 16  1  0
 15 17  2  0
 17 18  1  0
 18 19  1  0
 19 20  1  0
 20 21  2  0
 20 22  1  0
 22 23  1  0
 23 24  1  0
 24 25  1  0
 25 26  1  0
 26 27  1  0
 19 28  2  0
 28 29  1  0
 29 30  2  0
  6 31  2  0
 31  2  1  0
 30 13  1  0
 29 17  1  0
 27 22  1  0
M  END
>  <energy>  (10) 
10.28

>  <full_id>  (10) 
MOL00000446-003569-02_1

>  <mol_id>  (10) 
MOL00000446-003569-02

>  <act_mol>  (10) 
0

>  <act_conf>  (10) 
0

$$$$
MOL00000527-000030-03
     RDKit          3D

 20 21  0  0  0  0  0  0  0  0999 V2000
   -5.0166   -1.8973   -1.4114 N   0  0  0  0  0  0  0  0  0  0  0  0
   -4.8396   -1.4281   -0.0439 C   0  0  0  0  0  0  0  0  0  0  0  0
   -3.7811   -0.3555    0.0325 C   0  0  0  0  0  0  0  0  0  0  0  0
   -4.1378    1.0048   -0.1324 C   0  0  0  0  0  0  0  0  0  0  0  0
   -3.1750    2.0175   -0.0921 C   0  0  0  0  0  0  0  0  0  0  0  0
   -1.8647    1.6375    0.1079 C   0  0  0  0  0  0  0  0  0  0  0  0
   -1.4862    0.3009    0.2634 C   0  0  0  0  0  0  0  0  0  0  0  0
   -2.4326   -0.7081    0.2261 C   0  0  0  0  0  0  0  0  0  0  0  0
   -0.0331    0.3119    0.4461 C   0  0  0  0  0  0  0  0  0  0  0  0
    0.7642   -0.7498    0.6215 C   0  0  0  0  0  0  0  0  0  0  0  0
    2.1214   -0.7787    0.8317 N   0  0  0  0  0  0  0  0  0  0  0  0
    2.9926   -1.9123    0.5876 C   0  0  0  0  0  0  0  0  0  0  0  0
    4.3679   -1.4593    0.0869 C   0  0  0  0  0  0  0  0  0  0  0  0
    4.3463   -0.8494   -1.3193 C   0  0  0  0  0  0  0  0  0  0  0  0
    3.5651    0.4343   -1.4163 C   0  0  0  0  0  0  0  0  0  0  0  0
    2.7773    0.7202   -2.3032 O   0  0  0  0  0  0  0  0  0  0  0  0
    3.8280    1.2770   -0.3977 O   0  0  0  0  0  0  0  0  0  0  0  0
    0.4142    1.7477    0.3616 C   0  0  0  0  0  0  0  0  0  0  0  0
    1.5495    2.1891    0.4120 O   0  0  0  0  0  0  0  0  0  0  0  0
   -0.7530    2.4742    0.1751 N   0  0  0  0  0  0  0  0  0  0  0  0
  1  2  1  0
  2  3  1  0
  3  4  2  0
  4  5  1  0
  5  6  2  0
  6  7  1  0
  7  8  2  0
  7  9  1  0
  9 10  2  0
 10 11  1  0
 11 12  1  0
 12 13  1  0
 13 14  1  0
 14 15  1  0
 15 16  2  0
 15 17  1  0
  9 18  1  0
 18 19  2  0
 18 20  1  0
  8  3  1  0
 20  6  1  0
M  END
>  <energy>  (11) 
-5.29

>  <full_id>  (11) 
MOL00000527-000030-03_1

>  <mol_id>  (11) 
MOL00000527-000030-03

>  <act_mol>  (11) 
0

>  <act_conf>  (11) 
0

$$$$
MOL00000229-000378-03
     RDKit          3D

 34 36  0  0  0  0  0  0  0  0999 V2000
    6.2461    0.0934    5.1337 C   0  0  0  0  0  0  0  0  0  0  0  0
    5.2354    0.5020    4.1556 N   0  0  0  0  0  0  0  0  0  0  0  0
    5.2924    1.9539    3.9639 C   0  0  0  0  0  0  0  0  0  0  0  0
    5.4401   -0.2193    2.8887 C   0  0  0  0  0  0  0  0  0  0  0  0
    4.2742   -0.0775    1.9322 C   0  0  0  0  0  0  0  0  0  0  0  0
    4.4566    0.4408    0.6492 C   0  0  0  0  0  0  0  0  0  0  0  0
    3.3688    0.5574   -0.2185 C   0  0  0  0  0  0  0  0  0  0  0  0
    2.0943    0.1629    0.1636 C   0  0  0  0  0  0  0  0  0  0  0  0
    1.0742    0.2950   -0.7081 N   0  0  0  0  0  0  0  0  0  0  0  0
   -0.1490   -0.1334   -0.2832 C   0  0  0  0  0  0  0  0  0  0  0  0
   -1.2697    0.0195   -1.2444 C   0  0  0  0  0  0  0  0  0  0  0  0
   -1.4110    0.9288   -2.1774 N   0  0  0  0  0  0  0  0  0  0  0  0
   -0.3996    1.8373   -2.3291 N   0  0  0  0  0  0  0  0  0  0  0  0
   -0.4440    2.8265   -3.2851 C   0  0  0  0  0  0  0  0  0  0  0  0
    0.8668    3.8417   -3.4984 S   0  0  0  0  0  0  0  0  0  0  0  0
   -1.6347    2.8805   -3.9847 N   0  0  0  0  0  0  0  0  0  0  0  0
   -1.8478    3.7319   -5.0851 N   0  0  0  0  0  0  0  0  0  0  0  0
   -2.3986   -0.9986   -1.1531 C   0  0  0  0  0  0  0  0  0  0  0  0
   -2.1087   -2.1836   -1.1110 O   0  0  0  0  0  0  0  0  0  0  0  0
   -3.6442   -0.4021   -1.1635 N   0  0  0  0  0  0  0  0  0  0  0  0
   -4.9093   -1.0356   -1.0825 C   0  0  0  0  0  0  0  0  0  0  0  0
   -5.0388   -2.4231   -0.9309 C   0  0  0  0  0  0  0  0  0  0  0  0
   -6.2993   -3.0271   -0.8543 C   0  0  0  0  0  0  0  0  0  0  0  0
   -7.4416   -2.2434   -0.9261 C   0  0  0  0  0  0  0  0  0  0  0  0
   -8.6868   -2.7897   -0.8553 O   0  0  0  0  0  0  0  0  0  0  0  0
   -7.3469   -0.8670   -1.0715 C   0  0  0  0  0  0  0  0  0  0  0  0
   -6.0863   -0.2583   -1.1491 C   0  0  0  0  0  0  0  0  0  0  0  0
   -6.0355    1.1674   -1.2891 C   0  0  0  0  0  0  0  0  0  0  0  0
   -5.9493    2.3197   -1.3951 N   0  0  0  0  0  0  0  0  0  0  0  0
   -0.3295   -0.6240    0.9995 C   0  0  0  0  0  0  0  0  0  0  0  0
   -1.5361   -0.9365    1.5290 O   0  0  0  0  0  0  0  0  0  0  0  0
    0.6734   -0.7555    1.8865 N   0  0  0  0  0  0  0  0  0  0  0  0
    1.8954   -0.3681    1.4646 C   0  0  0  0  0  0  0  0  0  0  0  0
    2.9851   -0.4793    2.3182 C   0  0  0  0  0  0  0  0  0  0  0  0
  1  2  1  0
  2  3  1  0
  2  4  1  0
  4  5  1  0
  5  6  2  0
  6  7  1  0
  7  8  2  0
  8  9  1  0
  9 10  2  0
 10 11  1  0
 11 12  2  0
 12 13  1  0
 13 14  1  0
 14 15  2  0
 14 16  1  0
 16 17  1  0
 11 18  1  0
 18 19  2  0
 18 20  1  0
 20 21  1  0
 21 22  2  0
 22 23  1  0
 23 24  2  0
 24 25  1  0
 24 26  1  0
 26 27  2  0
 27 28  1  0
 28 29  3  0
 10 30  1  0
 30 31  1  0
 30 32  2  0
 32 33  1  0
 33 34  2  0
 34  5  1  0
 33  8  1  0
 27 21  1  0
M  END
>  <energy>  (12) 
171.60

>  <full_id>  (12) 
MOL00000229-000378-03_1

>  <mol_id>  (12) 
MOL00000229-000378-03

>  <act_mol>  (12) 
0

>  <act_conf>  (12) 
0

$$$$
MOL00000538-000424-04
     RDKit          3D

 21 22  0  0  0  0  0  0  0  0999 V2000
    5.5175    0.4707   -1.8473 C   0  0  0  0  0  0  0  0  0  0  0  0
    4.7327    0.4638   -0.5693 C   0  0  0  0  0  0  0  0  0  0  0  0
    5.5531    0.3687    0.5500 O   0  0  0  0  0  0  0  0  0  0  0  0
    3.3956    0.5441   -0.4680 C   0  0  0  0  0  0  0  0  0  0  0  0
    2.6861    0.5413    0.8259 C   0  0  0  0  0  0  0  0  0  0  0  0
    3.2029    0.4782    1.9258 O   0  0  0  0  0  0  0  0  0  0  0  0
    1.3462    0.6245    0.5421 N   0  0  0  0  0  0  0  0  0  0  0  0
    0.9875    0.7144   -0.8671 C   0  0  2  0  0  0  0  0  0  0  0  0
    0.0963   -0.4305   -1.3529 C   0  0  0  0  0  0  0  0  0  0  0  0
   -1.2867   -0.4200   -0.7182 C   0  0  0  0  0  0  0  0  0  0  0  0
   -1.5863   -1.2739    0.3734 C   0  0  0  0  0  0  0  0  0  0  0  0
   -0.6025   -2.2843    0.9077 C   0  0  0  0  0  0  0  0  0  0  0  0
   -2.8575   -1.2200    0.9706 C   0  0  0  0  0  0  0  0  0  0  0  0
   -3.8432   -0.3475    0.5045 C   0  0  0  0  0  0  0  0  0  0  0  0
   -5.1883   -0.2808    1.1761 C   0  0  0  0  0  0  0  0  0  0  0  0
   -5.1920    0.7121    2.1927 O   0  0  0  0  0  0  0  0  0  0  0  0
   -3.5465    0.4910   -0.5724 C   0  0  0  0  0  0  0  0  0  0  0  0
   -2.2900    0.4578   -1.2010 C   0  0  0  0  0  0  0  0  0  0  0  0
   -2.0718    1.3703   -2.3816 C   0  0  0  0  0  0  0  0  0  0  0  0
    2.3582    0.6417   -1.5251 C   0  0  0  0  0  0  0  0  0  0  0  0
    2.5577    0.6596   -2.7294 O   0  0  0  0  0  0  0  0  0  0  0  0
  1  2  1  0
  2  3  1  0
  2  4  2  0
  4  5  1  0
  5  6  2  0
  5  7  1  0
  7  8  1  0
  8  9  1  6
  9 10  1  0
 10 11  2  0
 11 12  1  0
 11 13  1  0
 13 14  2  0
 14 15  1  0
 15 16  1  0
 14 17  1  0
 17 18  2  0
 18 19  1  0
  8 20  1  0
 20 21  2  0
 20  4  1  0
 18 10  1  0
M  END
>  <energy>  (13) 
46.23

>  <full_id>  (13) 
MOL00000538-000424-04_1

>  <mol_id>  (13) 
MOL00000538-000424-04

>  <act_mol>  (13) 
0

>  <act_conf>  (13) 
0

$$$$
MOL00000126-001434-03
     RDKit          3D

 36 41  0  0  0  0  0  0  0  0999 V2000
   -9.3730   -3.5335    1.2862 C   0  0  0  0  0  0  0  0  0  0  0  0
   -8.3118   -2.5082    1.1566 C   0  0  0  0  0  0  0  0  0  0  0  0
   -7.1685   -2.6315    0.5154 N   0  0  0  0  0  0  0  0  0  0  0  0
   -6.5227   -1.4296    0.6723 C   0  0  0  0  0  0  0  0  0  0  0  0
   -5.2667   -1.0213    0.1954 C   0  0  0  0  0  0  0  0  0  0  0  0
   -4.8225    0.2796    0.4843 C   0  0  0  0  0  0  0  0  0  0  0  0
   -3.5555    0.7511    0.0222 N   0  0  0  0  0  0  0  0  0  0  0  0
   -3.0104    1.8624    0.5920 N   0  0  0  0  0  0  0  0  0  0  0  0
   -1.7782    1.9519    0.0850 C   0  0  0  0  0  0  0  0  0  0  0  0
   -0.9071    3.0786    0.5110 C   0  0  0  0  0  0  0  0  0  0  0  0
   -1.5165    0.9319   -0.8652 C   0  0  0  0  0  0  0  0  0  0  0  0
   -0.3311    0.6900   -1.6698 C   0  0  0  0  0  0  0  0  0  0  0  0
   -0.4001    0.5279   -2.8861 O   0  0  0  0  0  0  0  0  0  0  0  0
    0.9337    0.6350   -0.9631 C   0  0  0  0  0  0  0  0  0  0  0  0
    1.2495    0.4659    0.3748 C   0  0  0  0  0  0  0  0  0  0  0  0
    2.6680    0.4851    0.5191 C   0  0  0  0  0  0  0  0  0  0  0  0
    3.5498    0.3759    1.6187 C   0  0  0  0  0  0  0  0  0  0  0  0
    3.0970    0.1985    3.0418 C   0  0  0  0  0  0  0  0  0  0  0  0
    4.9372    0.4437    1.3569 C   0  0  0  0  0  0  0  0  0  0  0  0
    5.4595    0.6061    0.0628 C   0  0  0  0  0  0  0  0  0  0  0  0
    6.9171    0.6790   -0.1559 C   0  0  0  0  0  0  0  0  0  0  0  0
    7.6749    1.6683    0.4921 C   0  0  0  0  0  0  0  0  0  0  0  0
    9.0481    1.7518    0.2883 C   0  0  0  0  0  0  0  0  0  0  0  0
    9.6326    0.8370   -0.5656 C   0  0  0  0  0  0  0  0  0  0  0  0
    8.9496   -0.1334   -1.2078 N   0  0  0  0  0  0  0  0  0  0  0  0
    7.6186   -0.2051   -0.9956 C   0  0  0  0  0  0  0  0  0  0  0  0
    6.9763   -1.2201   -1.7075 N   0  0  0  0  0  0  0  0  0  0  0  0
    4.5679    0.7076   -1.0168 C   0  0  0  0  0  0  0  0  0  0  0  0
    3.1937    0.6428   -0.7602 C   0  0  0  0  0  0  0  0  0  0  0  0
    2.1349    0.7014   -1.6339 N   0  0  0  0  0  0  0  0  0  0  0  0
   -2.7153    0.2471   -0.9795 C   0  0  0  0  0  0  0  0  0  0  0  0
   -3.0583   -0.7117   -1.8878 N   0  0  0  0  0  0  0  0  0  0  0  0
   -5.6184    1.1316    1.2755 C   0  0  0  0  0  0  0  0  0  0  0  0
   -6.8724    0.7355    1.7603 C   0  0  0  0  0  0  0  0  0  0  0  0
   -7.2875   -0.5529    1.4299 C   0  0  0  0  0  0  0  0  0  0  0  0
   -8.4231   -1.2626    1.7238 N   0  0  0  0  0  0  0  0  0  0  0  0
  1  2  1  0
  2  3  2  0
  3  4  1  0
  4  5  2  0
  5  6  1  0
  6  7  1  0
  7  8  1  0
  8  9  2  0
  9 10  1  0
  9 11  1  0
 11 12  1  0
 12 13  2  0
 12 14  1  0
 14 15  2  0
 15 16  1  0
 16 17  2  0
 17 18  1  0
 17 19  1  0
 19 20  2  0
 20 21  1  0
 21 22  2  0
 22 23  1  0
 23 24  2  0
 24 25  1  0
 25 26  2  0
 26 27  1  0
 20 28  1  0
 28 29  2  0
 29 30  1  0
 11 31  2  0
 31 32  1  0
  6 33  2  0
 33 34  1  0
 34 35  2  0
 35 36  1  0
 36  2  1  0
 35  4  1  0
 31  7  1  0
 30 14  1  0
 29 16  1  0
 26 21  1  0
M  END
>  <energy>  (14) 
102.57

>  <full_id>  (14) 
MOL00000126-001434-03_1

>  <mol_id>  (14) 
MOL00000126-001434-03

>  <act_mol>  (14) 
0

>  <act_conf>  (14) 
0

$$$$
MOL00000447-000384-03
     RDKit          3D

 31 33  0  0  0  0  0  0  0  0999 V2000
   -5.9304    2.3016   -0.8552 C   0  0  0  0  0  0  0  0  0  0  0  0
   -4.7066    1.6767   -1.3623 N   0  0  0  0  0  0  0  0  0  0  0  0
   -4.5264    2.0061   -2.7749 C   0  0  0  0  0  0  0  0  0  0  0  0
   -3.5496    1.9961   -0.5013 C   0  0  2  0  0  0  0  0  0  0  0  0
   -3.0698    3.4481   -0.4274 C   0  0  0  0  0  0  0  0  0  0  0  0
   -1.7126    3.3547    0.2741 C   0  0  0  0  0  0  0  0  0  0  0  0
   -1.2291    1.9107    0.1035 C   0  0  0  0  0  0  0  0  0  0  0  0
   -2.2320    1.2473   -0.8438 C   0  0  1  0  0  0  0  0  0  0  0  0
   -2.3945   -0.1857   -0.5868 N   0  0  0  0  0  0  0  0  0  0  0  0
   -1.4163   -1.0380   -1.1128 C   0  0  0  0  0  0  0  0  0  0  0  0
   -0.3636   -0.5014   -1.7591 N   0  0  0  0  0  0  0  0  0  0  0  0
    0.5989   -1.3253   -2.2188 C   0  0  0  0  0  0  0  0  0  0  0  0
    1.7824   -0.7033   -2.9181 C   0  0  0  0  0  0  0  0  0  0  0  0
    2.8794   -0.2696   -1.9726 C   0  0  0  0  0  0  0  0  0  0  0  0
    2.8861    1.0249   -1.4364 C   0  0  0  0  0  0  0  0  0  0  0  0
    3.8884    1.4191   -0.5472 C   0  0  0  0  0  0  0  0  0  0  0  0
    4.9049    0.5275   -0.1802 C   0  0  0  0  0  0  0  0  0  0  0  0
    5.9726    0.9460    0.7976 C   0  0  0  0  0  0  0  0  0  0  0  0
    5.4976    0.6641    2.1151 O   0  0  0  0  0  0  0  0  0  0  0  0
    6.3639    1.0191    3.0853 C   0  0  0  0  0  0  0  0  0  0  0  0
    5.8430    0.7224    4.2957 N   0  0  0  0  0  0  0  0  0  0  0  0
    7.4583    1.5343    2.9288 O   0  0  0  0  0  0  0  0  0  0  0  0
    4.8856   -0.7737   -0.6991 C   0  0  0  0  0  0  0  0  0  0  0  0
    3.8826   -1.1685   -1.5874 C   0  0  0  0  0  0  0  0  0  0  0  0
    0.5757   -2.6616   -2.0841 N   0  0  0  0  0  0  0  0  0  0  0  0
   -0.4805   -3.1657   -1.4237 C   0  0  0  0  0  0  0  0  0  0  0  0
   -1.5109   -2.4015   -0.9154 C   0  0  0  0  0  0  0  0  0  0  0  0
   -2.6221   -3.0374   -0.1653 C   0  0  0  0  0  0  0  0  0  0  0  0
   -3.8544   -2.5742   -0.5237 F   0  0  0  0  0  0  0  0  0  0  0  0
   -2.6860   -4.3894   -0.3579 F   0  0  0  0  0  0  0  0  0  0  0  0
   -2.5302   -2.8736    1.1832 F   0  0  0  0  0  0  0  0  0  0  0  0
  1  2  1  0
  2  3  1  0
  4  2  1  6
  4  5  1  0
  5  6  1  0
  6  7  1  0
  7  8  1  0
  8  9  1  1
  9 10  1  0
 10 11  2  0
 11 12  1  0
 12 13  1  0
 13 14  1  0
 14 15  2  0
 15 16  1  0
 16 17  2  0
 17 18  1  0
 18 19  1  0
 19 20  1  0
 20 21  1  0
 20 22  2  0
 17 23  1  0
 23 24  2  0
 12 25  2  0
 25 26  1  0
 26 27  2  0
 27 28  1  0
 28 29  1  0
 28 30  1  0
 28 31  1  0
  8  4  1  0
 27 10  1  0
 24 14  1  0
M  END
>  <energy>  (15) 
-49.86

>  <full_id>  (15) 
MOL00000447-000384-03_1

>  <mol_id>  (15) 
MOL00000447-000384-03

>  <act_mol>  (15) 
0

>  <act_conf>  (15) 
0

$$$$
MOL00000359-000497-04
     RDKit          3D

 30 33  0  0  0  0  0  0  0  0999 V2000
   -6.9522   -1.2530   -2.7808 C   0  0  0  0  0  0  0  0  0  0  0  0
   -5.7521   -0.8014   -1.9650 C   0  0  0  0  0  0  0  0  0  0  0  0
   -4.8152   -1.8979   -1.8400 N   0  0  0  0  0  0  0  0  0  0  0  0
   -3.7333   -1.6581   -1.0061 C   0  0  0  0  0  0  0  0  0  0  0  0
   -3.2447   -0.4164   -0.8657 N   0  0  0  0  0  0  0  0  0  0  0  0
   -2.2242   -0.2400   -0.0158 C   0  0  0  0  0  0  0  0  0  0  0  0
   -1.7383    1.0689    0.0715 N   0  0  0  0  0  0  0  0  0  0  0  0
   -1.7096    1.6072    1.4368 C   0  0  0  0  0  0  0  0  0  0  0  0
   -1.3712    3.1026    1.4299 C   0  0  0  0  0  0  0  0  0  0  0  0
    0.0766    3.3967    1.0140 C   0  0  0  0  0  0  0  0  0  0  0  0
    0.2593    3.1928   -0.4224 N   0  0  0  0  0  0  0  0  0  0  0  0
    1.6468    3.0046   -0.8506 C   0  0  1  0  0  0  0  0  0  0  0  0
    2.5824    4.1796   -0.4626 C   0  0  0  0  0  0  0  0  0  0  0  0
    4.0656    3.8370   -0.7157 C   0  0  0  0  0  0  0  0  0  0  0  0
    4.5251    2.6335    0.1340 C   0  0  0  0  0  0  0  0  0  0  0  0
    3.5319    1.5205    0.0664 C   0  0  0  0  0  0  0  0  0  0  0  0
    2.2349    1.7124   -0.3723 C   0  0  0  0  0  0  0  0  0  0  0  0
    1.5924    0.5044   -0.3518 N   0  0  0  0  0  0  0  0  0  0  0  0
    2.4394   -0.4667    0.1408 C   0  0  0  0  0  0  0  0  0  0  0  0
    2.2193   -1.8335    0.3481 C   0  0  0  0  0  0  0  0  0  0  0  0
    3.2685   -2.5887    0.8820 C   0  0  0  0  0  0  0  0  0  0  0  0
    4.4962   -2.0022    1.2095 C   0  0  0  0  0  0  0  0  0  0  0  0
    5.6080   -2.8446    1.7599 C   0  0  0  0  0  0  0  0  0  0  0  0
    4.7024   -0.6339    0.9641 C   0  0  0  0  0  0  0  0  0  0  0  0
    3.6612    0.1499    0.4258 C   0  0  0  0  0  0  0  0  0  0  0  0
   -1.6595   -1.2809    0.6761 C   0  0  0  0  0  0  0  0  0  0  0  0
   -2.2197   -2.5119    0.4546 C   0  0  0  0  0  0  0  0  0  0  0  0
   -1.6480   -3.5678    1.1374 O   0  0  0  0  0  0  0  0  0  0  0  0
   -2.2403   -4.8230    0.8230 C   0  0  0  0  0  0  0  0  0  0  0  0
   -3.2591   -2.7262   -0.3640 N   0  0  0  0  0  0  0  0  0  0  0  0
  1  2  1  0
  2  3  1  0
  3  4  1  0
  4  5  2  0
  5  6  1  0
  6  7  1  0
  7  8  1  0
  8  9  1  0
  9 10  1  0
 10 11  1  0
 12 11  1  1
 12 13  1  0
 13 14  1  0
 14 15  1  0
 15 16  1  0
 16 17  2  0
 17 18  1  0
 18 19  1  0
 19 20  2  0
 20 21  1  0
 21 22  2  0
 22 23  1  0
 22 24  1  0
 24 25  2  0
  6 26  2  0
 26 27  1  0
 27 28  1  0
 28 29  1  0
 27 30  2  0
 30  4  1  0
 17 12  1  0
 25 19  1  0
 25 16  1  0
M  END
>  <energy>  (16) 
-147.63

>  <full_id>  (16) 
MOL00000359-000497-04_1

>  <mol_id>  (16) 
MOL00000359-000497-04

>  <act_mol>  (16) 
0

>  <act_conf>  (16) 
0

$$$$
MOL00000328-000040-04
     RDKit          3D

 36 39  0  0  0  0  0  0  0  0999 V2000
    6.1316    3.3963   -2.7369 C   0  0  0  0  0  0  0  0  0  0  0  0
    5.9748    2.3607   -1.6650 C   0  0  0  0  0  0  0  0  0  0  0  0
    5.3131    1.1627   -1.9240 C   0  0  0  0  0  0  0  0  0  0  0  0
    5.1444    0.2118   -0.9125 C   0  0  0  0  0  0  0  0  0  0  0  0
    5.6452    0.4168    0.3822 C   0  0  0  0  0  0  0  0  0  0  0  0
    5.4222   -0.4972    1.4299 N   0  0  0  0  0  0  0  0  0  0  0  0
    5.1553   -1.9196    1.1173 C   0  0  0  0  0  0  0  0  0  0  0  0
    3.6551   -2.2264    0.9777 C   0  0  0  0  0  0  0  0  0  0  0  0
    3.2722   -3.3344    0.6106 O   0  0  0  0  0  0  0  0  0  0  0  0
    2.8599   -1.1519    1.3292 N   0  0  0  0  0  0  0  0  0  0  0  0
    1.4604   -1.0653    1.3546 C   0  0  0  0  0  0  0  0  0  0  0  0
    0.9006    0.1692    1.6973 C   0  0  0  0  0  0  0  0  0  0  0  0
   -0.4892    0.3376    1.7559 C   0  0  0  0  0  0  0  0  0  0  0  0
   -1.3400   -0.7285    1.4719 C   0  0  0  0  0  0  0  0  0  0  0  0
   -2.7445   -0.6519    1.5129 N   0  0  0  0  0  0  0  0  0  0  0  0
   -3.5305    0.4494    1.8077 C   0  0  0  0  0  0  0  0  0  0  0  0
   -3.1393    1.5794    2.0879 O   0  0  0  0  0  0  0  0  0  0  0  0
   -5.0279    0.1346    1.7621 C   0  0  0  0  0  0  0  0  0  0  0  0
   -5.4928   -0.0795    0.3895 N   0  0  0  0  0  0  0  0  0  0  0  0
   -5.4225   -1.3747   -0.1047 C   0  0  0  0  0  0  0  0  0  0  0  0
   -4.8698   -2.2663    0.5481 O   0  0  0  0  0  0  0  0  0  0  0  0
   -5.9659   -1.6068   -1.3557 N   0  0  0  0  0  0  0  0  0  0  0  0
   -5.9309   -2.9663   -1.8626 C   0  0  0  0  0  0  0  0  0  0  0  0
   -6.4148   -0.6160   -2.2156 C   0  0  0  0  0  0  0  0  0  0  0  0
   -6.8075   -0.8297   -3.3608 O   0  0  0  0  0  0  0  0  0  0  0  0
   -6.3885    0.7649   -1.7060 C   0  0  0  0  0  0  0  0  0  0  0  0
   -6.8272    1.8110   -2.5331 C   0  0  0  0  0  0  0  0  0  0  0  0
   -6.7950    3.1237   -2.0732 C   0  0  0  0  0  0  0  0  0  0  0  0
   -6.3188    3.3883   -0.7941 C   0  0  0  0  0  0  0  0  0  0  0  0
   -5.8831    2.3424    0.0282 C   0  0  0  0  0  0  0  0  0  0  0  0
   -5.9220    1.0108   -0.4142 C   0  0  0  0  0  0  0  0  0  0  0  0
   -0.7790   -1.9627    1.1268 C   0  0  0  0  0  0  0  0  0  0  0  0
    0.6104   -2.1309    1.0686 C   0  0  0  0  0  0  0  0  0  0  0  0
    6.2524    1.6616    0.6614 C   0  0  0  0  0  0  0  0  0  0  0  0
    6.7413    2.0135    2.0425 C   0  0  0  0  0  0  0  0  0  0  0  0
    6.4247    2.6092   -0.3662 C   0  0  0  0  0  0  0  0  0  0  0  0
  1  2  1  0
  2  3  2  0
  3  4  1  0
  4  5  2  0
  5  6  1  0
  6  7  1  0
  7  8  1  0
  8  9  2  0
  8 10  1  0
 10 11  1  0
 11 12  2  0
 12 13  1  0
 13 14  2  0
 14 15  1  0
 15 16  1  0
 16 17  2  0
 16 18  1  0
 18 19  1  0
 19 20  1  0
 20 21  2  0
 20 22  1  0
 22 23  1  0
 22 24  1  0
 24 25  2  0
 24 26  1  0
 26 27  2  0
 27 28  1  0
 28 29  2  0
 29 30  1  0
 30 31  2  0
 14 32  1  0
 32 33  2  0
  5 34  1  0
 34 35  1  0
 34 36  2  0
 36  2  1  0
 33 11  1  0
 31 19  1  0
 31 26  1  0
M  END
>  <energy>  (17) 
15.49

>  <full_id>  (17) 
MOL00000328-000040-04_1

>  <mol_id>  (17) 
MOL00000328-000040-04

>  <act_mol>  (17) 
0

>  <act_conf>  (17) 
0

$$$$
MOL00000628-000396-02
     RDKit          3D

 29 31  0  0  0  0  0  0  0  0999 V2000
   -5.9645    2.5912   -3.1590 C   0  0  0  0  0  0  0  0  0  0  0  0
   -5.4637    1.4806   -2.4260 O   0  0  0  0  0  0  0  0  0  0  0  0
   -6.3155    0.8698   -1.5433 C   0  0  0  0  0  0  0  0  0  0  0  0
   -7.6392    1.2603   -1.3137 C   0  0  0  0  0  0  0  0  0  0  0  0
   -8.4280    0.5798   -0.3824 C   0  0  0  0  0  0  0  0  0  0  0  0
   -7.9012   -0.4928    0.3299 C   0  0  0  0  0  0  0  0  0  0  0  0
   -6.5844   -0.8909    0.1086 C   0  0  0  0  0  0  0  0  0  0  0  0
   -5.7835   -0.2237   -0.8344 C   0  0  0  0  0  0  0  0  0  0  0  0
   -4.3550   -0.6675   -1.0350 C   0  0  0  0  0  0  0  0  0  0  0  0
   -3.5274    0.1300   -0.1858 O   0  0  0  0  0  0  0  0  0  0  0  0
   -2.1960   -0.1431   -0.3022 C   0  0  0  0  0  0  0  0  0  0  0  0
   -1.7379   -1.0221   -1.0238 O   0  0  0  0  0  0  0  0  0  0  0  0
   -1.3730    0.7280    0.5433 C   0  0  0  0  0  0  0  0  0  0  0  0
   -1.8596    1.7296    1.3635 C   0  0  0  0  0  0  0  0  0  0  0  0
   -0.5763    2.5047    2.1850 S   0  0  0  0  0  0  0  0  0  0  0  0
    0.5634    1.4705    1.3969 C   0  0  0  0  0  0  0  0  0  0  0  0
    1.8727    1.6186    1.6728 N   0  0  0  0  0  0  0  0  0  0  0  0
    2.9771    0.9193    1.1948 C   0  0  0  0  0  0  0  0  0  0  0  0
    2.9309   -0.0322    0.1948 C   0  0  0  0  0  0  0  0  0  0  0  0
    4.1117   -0.6569   -0.1695 C   0  0  0  0  0  0  0  0  0  0  0  0
    4.0644   -1.5981   -1.2139 N   0  0  0  0  0  0  0  0  0  0  0  0
    5.3103   -2.3070   -1.5106 C   0  0  0  0  0  0  0  0  0  0  0  0
    6.1885   -1.4904   -2.4589 C   0  0  0  0  0  0  0  0  0  0  0  0
    7.5509   -2.1361   -2.6598 C   0  0  0  0  0  0  0  0  0  0  0  0
    7.4043   -3.4332   -3.2216 O   0  0  0  0  0  0  0  0  0  0  0  0
    5.2777   -0.3345    0.4067 N   0  0  0  0  0  0  0  0  0  0  0  0
    5.2309    0.6030    1.3582 C   0  0  0  0  0  0  0  0  0  0  0  0
    4.1386    1.2474    1.7871 N   0  0  0  0  0  0  0  0  0  0  0  0
    0.0161    0.5996    0.5809 N   0  0  0  0  0  0  0  0  0  0  0  0
  1  2  1  0
  2  3  1  0
  3  4  2  0
  4  5  1  0
  5  6  2  0
  6  7  1  0
  7  8  2  0
  8  9  1  0
  9 10  1  0
 10 11  1  0
 11 12  2  0
 11 13  1  0
 13 14  2  0
 14 15  1  0
 15 16  1  0
 16 17  1  0
 17 18  1  0
 18 19  2  0
 19 20  1  0
 20 21  1  0
 21 22  1  0
 22 23  1  0
 23 24  1  0
 24 25  1  0
 20 26  2  0
 26 27  1  0
 27 28  2  0
 16 29  2  0
  8  3  1  0
 29 13  1  0
 28 18  1  0
M  END
>  <energy>  (18) 
-67.50

>  <full_id>  (18) 
MOL00000628-000396-02_1

>  <mol_id>  (18) 
MOL00000628-000396-02

>  <act_mol>  (18) 
0

>  <act_conf>  (18) 
0

$$$$
MOL00000579-000398-03
     RDKit          3D

 34 37  0  0  0  0  0  0  0  0999 V2000
   -6.7211    2.4915    1.4607 O   0  0  0  0  0  0  0  0  0  0  0  0
   -6.9061    1.7112    0.5336 C   0  0  0  0  0  0  0  0  0  0  0  0
   -8.3029    1.4770   -0.0499 C   0  0  0  0  0  0  0  0  0  0  0  0
   -8.4220    0.2029   -0.6770 O   0  0  0  0  0  0  0  0  0  0  0  0
   -5.9509    0.9642   -0.1338 N   0  0  0  0  0  0  0  0  0  0  0  0
   -4.5671    0.9061    0.1104 C   0  0  0  0  0  0  0  0  0  0  0  0
   -3.8084    0.0507   -0.7154 C   0  0  0  0  0  0  0  0  0  0  0  0
   -2.4204   -0.0868   -0.5553 C   0  0  0  0  0  0  0  0  0  0  0  0
   -1.7889    0.6496    0.4294 C   0  0  0  0  0  0  0  0  0  0  0  0
   -2.5590    1.4793    1.2528 C   0  0  0  0  0  0  0  0  0  0  0  0
   -3.9290    1.6305    1.1172 C   0  0  0  0  0  0  0  0  0  0  0  0
   -1.7664    2.0906    2.2181 N   0  0  0  0  0  0  0  0  0  0  0  0
   -0.4469    1.7000    2.1044 C   0  0  0  0  0  0  0  0  0  0  0  0
    0.4806    2.0280    2.8236 O   0  0  0  0  0  0  0  0  0  0  0  0
   -0.3973    0.7731    0.9084 C   0  0  0  0  0  0  0  0  0  0  0  0
    0.7848    0.2558    0.4917 C   0  0  0  0  0  0  0  0  0  0  0  0
    1.9805    0.4616    1.1774 N   0  0  0  0  0  0  0  0  0  0  0  0
    3.3313    0.1691    0.9188 C   0  0  0  0  0  0  0  0  0  0  0  0
    3.8680   -0.1221   -0.3356 C   0  0  0  0  0  0  0  0  0  0  0  0
    5.2228   -0.4562   -0.5003 C   0  0  0  0  0  0  0  0  0  0  0  0
    6.0735   -0.5150    0.5997 C   0  0  0  0  0  0  0  0  0  0  0  0
    7.4020   -0.8252    0.5881 O   0  0  0  0  0  0  0  0  0  0  0  0
    8.0090   -1.0740   -0.6679 C   0  0  0  0  0  0  0  0  0  0  0  0
    7.9138    0.0014   -1.4803 F   0  0  0  0  0  0  0  0  0  0  0  0
    9.3223   -1.3327   -0.4720 F   0  0  0  0  0  0  0  0  0  0  0  0
    7.4592   -2.1484   -1.2753 F   0  0  0  0  0  0  0  0  0  0  0  0
    5.5513   -0.2371    1.8618 C   0  0  0  0  0  0  0  0  0  0  0  0
    4.2016    0.0983    2.0175 C   0  0  0  0  0  0  0  0  0  0  0  0
    0.7887   -0.6403   -0.6836 C   0  0  0  0  0  0  0  0  0  0  0  0
    0.6797   -0.1181   -1.9835 C   0  0  0  0  0  0  0  0  0  0  0  0
    0.6792   -0.9722   -3.0883 C   0  0  0  0  0  0  0  0  0  0  0  0
    0.7868   -2.3505   -2.9037 C   0  0  0  0  0  0  0  0  0  0  0  0
    0.8981   -2.8781   -1.6170 C   0  0  0  0  0  0  0  0  0  0  0  0
    0.8990   -2.0272   -0.5103 C   0  0  0  0  0  0  0  0  0  0  0  0
  1  2  2  0
  2  3  1  0
  3  4  1  0
  2  5  1  0
  5  6  1  0
  6  7  2  0
  7  8  1  0
  8  9  2  0
  9 10  1  0
 10 11  2  0
 10 12  1  0
 12 13  1  0
 13 14  2  0
 13 15  1  0
 15 16  2  0
 16 17  1  0
 17 18  1  0
 18 19  2  0
 19 20  1  0
 20 21  2  0
 21 22  1  0
 22 23  1  0
 23 24  1  0
 23 25  1  0
 23 26  1  0
 21 27  1  0
 27 28  2  0
 16 29  1  0
 29 30  2  0
 30 31  1  0
 31 32  2  0
 32 33  1  0
 33 34  2  0
 11  6  1  0
 28 18  1  0
 34 29  1  0
 15  9  1  0
M  END
>  <energy>  (19) 
79.99

>  <full_id>  (19) 
MOL00000579-000398-03_1

>  <mol_id>  (19) 
MOL00000579-000398-03

>  <act_mol>  (19) 
0

>  <act_conf>  (19) 
0

$$$$
MOL00000657-000484-03
     RDKit          3D

 31 33  0  0  0  0  0  0  0  0999 V2000
    7.0617   -4.7100   -0.9969 C   0  0  0  0  0  0  0  0  0  0  0  0
    6.5788   -3.4025   -1.6013 C   0  0  0  0  0  0  0  0  0  0  0  0
    6.1339   -2.4097   -0.5466 C   0  0  0  0  0  0  0  0  0  0  0  0
    5.9059   -2.7170    0.6134 O   0  0  0  0  0  0  0  0  0  0  0  0
    5.9659   -1.1106   -1.0411 N   0  0  0  0  0  0  0  0  0  0  0  0
    5.5891    0.2238   -0.1272 S   0  0  0  0  0  6  0  0  0  0  0  0
    5.5193    1.3197   -1.0730 O   0  0  0  0  0  0  0  0  0  0  0  0
    6.4737    0.2900    1.0136 O   0  0  0  0  0  0  0  0  0  0  0  0
    3.9383   -0.1100    0.4245 C   0  0  0  0  0  0  0  0  0  0  0  0
    2.8563    0.2315   -0.3868 C   0  0  0  0  0  0  0  0  0  0  0  0
    1.5533   -0.0031    0.0643 C   0  0  0  0  0  0  0  0  0  0  0  0
    1.3102   -0.5418    1.3348 C   0  0  0  0  0  0  0  0  0  0  0  0
    0.0124   -0.8469    1.8030 N   0  0  0  0  0  0  0  0  0  0  0  0
   -1.2179   -0.2428    1.4481 C   0  0  0  0  0  0  0  0  0  0  0  0
   -2.3895   -0.8696    1.8780 C   0  0  0  0  0  0  0  0  0  0  0  0
   -3.6251   -0.3246    1.5404 C   0  0  0  0  0  0  0  0  0  0  0  0
   -3.6541    0.8375    0.7739 C   0  0  0  0  0  0  0  0  0  0  0  0
   -4.9381    1.4612    0.4157 C   0  0  0  0  0  0  0  0  0  0  0  0
   -5.1666    2.6016    0.8105 O   0  0  0  0  0  0  0  0  0  0  0  0
   -5.9470    0.7211   -0.3888 C   0  0  0  0  0  0  0  0  0  0  0  0
   -5.5933   -0.3582   -1.2118 C   0  0  0  0  0  0  0  0  0  0  0  0
   -6.5745   -1.0164   -1.9575 C   0  0  0  0  0  0  0  0  0  0  0  0
   -7.8972   -0.5920   -1.8831 C   0  0  0  0  0  0  0  0  0  0  0  0
   -8.8324   -1.2251   -2.6022 F   0  0  0  0  0  0  0  0  0  0  0  0
   -8.2601    0.4839   -1.0812 C   0  0  0  0  0  0  0  0  0  0  0  0
   -7.2833    1.1456   -0.3349 C   0  0  0  0  0  0  0  0  0  0  0  0
   -2.4529    1.4263    0.3913 C   0  0  0  0  0  0  0  0  0  0  0  0
   -2.4019    2.5614   -0.4181 N   0  0  0  0  0  0  0  0  0  0  0  0
   -1.2588    0.8843    0.7038 N   0  0  0  0  0  0  0  0  0  0  0  0
    2.4174   -0.8990    2.1231 C   0  0  0  0  0  0  0  0  0  0  0  0
    3.7248   -0.6692    1.6836 C   0  0  0  0  0  0  0  0  0  0  0  0
  1  2  1  0
  2  3  1  0
  3  4  2  0
  3  5  1  0
  6  5  1  0
  6  7  2  0
  6  8  2  0
  6  9  1  0
  9 10  2  0
 10 11  1  0
 11 12  2  0
 12 13  1  0
 13 14  1  0
 14 15  2  0
 15 16  1  0
 16 17  2  0
 17 18  1  0
 18 19  2  0
 18 20  1  0
 20 21  2  0
 21 22  1  0
 22 23  2  0
 23 24  1  0
 23 25  1  0
 25 26  2  0
 17 27  1  0
 27 28  1  0
 27 29  2  0
 12 30  1  0
 30 31  2  0
 31  9  1  0
 29 14  1  0
 26 20  1  0
M  END
>  <energy>  (20) 
-81.60

>  <full_id>  (20) 
MOL00000657-000484-03_1

>  <mol_id>  (20) 
MOL00000657-000484-03

>  <act_mol>  (20) 
0

>  <act_conf>  (20) 
0

$$$$
MOL00000677-000122-03
     RDKit          3D

 30 33  0  0  0  0  0  0  0  0999 V2000
   -4.8036    2.3894    5.2608 C   0  0  0  0  0  0  0  0  0  0  0  0
   -4.7445    2.2686    3.7660 C   0  0  0  0  0  0  0  0  0  0  0  0
   -5.8123    2.7168    2.9775 C   0  0  0  0  0  0  0  0  0  0  0  0
   -5.7504    2.6220    1.5869 C   0  0  0  0  0  0  0  0  0  0  0  0
   -4.6080    2.0930    0.9804 C   0  0  0  0  0  0  0  0  0  0  0  0
   -4.5243    1.9807   -0.4962 C   0  0  0  0  0  0  0  0  0  0  0  0
   -5.4661    2.3221   -1.2050 O   0  0  0  0  0  0  0  0  0  0  0  0
   -3.2753    1.4546   -1.1066 C   0  0  0  0  0  0  0  0  0  0  0  0
   -3.1626    1.3794   -2.4998 C   0  0  0  0  0  0  0  0  0  0  0  0
   -1.9909    0.8951   -3.0759 C   0  0  0  0  0  0  0  0  0  0  0  0
   -0.9383    0.4724   -2.2623 C   0  0  0  0  0  0  0  0  0  0  0  0
   -1.0536    0.5284   -0.8614 C   0  0  0  0  0  0  0  0  0  0  0  0
    0.0718    0.0656    0.0005 C   0  0  0  0  0  0  0  0  0  0  0  0
    0.2316    0.5236    1.1319 O   0  0  0  0  0  0  0  0  0  0  0  0
    0.8823   -0.9288   -0.5291 N   0  0  0  0  0  0  0  0  0  0  0  0
    1.7983   -1.5203    0.3664 N   0  0  0  0  0  0  0  0  0  0  0  0
    3.1549   -1.4338   -0.0575 C   0  0  0  0  0  0  0  0  0  0  0  0
    3.5002   -1.4511   -1.4201 C   0  0  0  0  0  0  0  0  0  0  0  0
    4.8358   -1.4354   -1.8327 C   0  0  0  0  0  0  0  0  0  0  0  0
    5.8619   -1.4221   -0.8879 C   0  0  0  0  0  0  0  0  0  0  0  0
    7.2680   -1.4006   -1.3720 C   0  0  0  0  0  0  0  0  0  0  0  0
    8.2240   -0.9307   -0.5140 N   0  0  0  0  0  0  0  0  0  0  0  0
    7.5639   -1.7523   -2.5068 O   0  0  0  0  0  0  0  0  0  0  0  0
    5.5407   -1.4651    0.4730 C   0  0  0  0  0  0  0  0  0  0  0  0
    4.1969   -1.4884    0.8973 C   0  0  0  0  0  0  0  0  0  0  0  0
    3.9097   -1.5593    2.3746 C   0  0  0  0  0  0  0  0  0  0  0  0
   -2.2196    1.0535   -0.2685 C   0  0  0  0  0  0  0  0  0  0  0  0
   -2.3981    1.0937    1.1298 N   0  0  0  0  0  0  0  0  0  0  0  0
   -3.5139    1.6736    1.7488 C   0  0  0  0  0  0  0  0  0  0  0  0
   -3.5977    1.7517    3.1427 C   0  0  0  0  0  0  0  0  0  0  0  0
  1  2  1  0
  2  3  2  0
  3  4  1  0
  4  5  2  0
  5  6  1  0
  6  7  2  0
  6  8  1  0
  8  9  2  0
  9 10  1  0
 10 11  2  0
 11 12  1  0
 12 13  1  0
 13 14  2  0
 13 15  1  0
 15 16  1  0
 16 17  1  0
 17 18  2  0
 18 19  1  0
 19 20  2  0
 20 21  1  0
 21 22  1  0
 21 23  2  0
 20 24  1  0
 24 25  2  0
 25 26  1  0
 12 27  2  0
 27 28  1  0
 28 29  1  0
 29 30  2  0
 30  2  1  0
 29  5  1  0
 27  8  1  0
 25 17  1  0
M  END
>  <energy>  (21) 
114.47

>  <full_id>  (21) 
MOL00000677-000122-03_1

>  <mol_id>  (21) 
MOL00000677-000122-03

>  <act_mol>  (21) 
0

>  <act_conf>  (21) 
0

$$$$
MOL00000486-001916-02
     RDKit          3D

 33 35  0  0  0  0  0  0  0  0999 V2000
    5.2309    0.5578   -2.9575 C   0  0  0  0  0  0  0  0  0  0  0  0
    3.8140    0.0105   -2.7460 C   0  0  0  0  0  0  0  0  0  0  0  0
    3.1288   -0.1357   -4.1114 C   0  0  0  0  0  0  0  0  0  0  0  0
    3.8396   -1.3397   -1.9857 C   0  0  1  0  0  0  0  0  0  0  0  0
    4.5744   -1.3260   -0.7145 N   0  0  0  0  0  0  0  0  0  0  0  0
    4.3439   -0.4468    0.3226 C   0  0  0  0  0  0  0  0  0  0  0  0
    3.4517    0.3954    0.2312 O   0  0  0  0  0  0  0  0  0  0  0  0
    5.1994   -0.6183    1.4889 C   0  0  0  0  0  0  0  0  0  0  0  0
    5.9936   -1.6875    1.8700 C   0  0  0  0  0  0  0  0  0  0  0  0
    6.6797   -1.4528    3.0993 C   0  0  0  0  0  0  0  0  0  0  0  0
    6.3914   -0.2126    3.6222 C   0  0  0  0  0  0  0  0  0  0  0  0
    5.2923    0.6547    2.6423 S   0  0  0  0  0  0  0  0  0  0  0  0
    2.4321   -1.9633   -1.8002 C   0  0  0  0  0  0  0  0  0  0  0  0
    2.1449   -2.9879   -2.4156 O   0  0  0  0  0  0  0  0  0  0  0  0
    1.5910   -1.2390   -0.9727 N   0  0  0  0  0  0  0  0  0  0  0  0
    0.2521   -1.5326   -0.5932 C   0  0  0  0  0  0  0  0  0  0  0  0
   -0.3304   -2.7545   -0.9435 C   0  0  0  0  0  0  0  0  0  0  0  0
   -1.6158   -3.0717   -0.5340 C   0  0  0  0  0  0  0  0  0  0  0  0
   -2.3482   -2.1613    0.2190 C   0  0  0  0  0  0  0  0  0  0  0  0
   -1.8393   -0.8893    0.5700 C   0  0  0  0  0  0  0  0  0  0  0  0
   -2.5842    0.0904    1.2931 C   0  0  0  0  0  0  0  0  0  0  0  0
   -4.2912   -0.1534    1.7590 S   0  0  0  0  0  6  0  0  0  0  0  0
   -4.3437   -1.3394    2.5863 O   0  0  0  0  0  0  0  0  0  0  0  0
   -4.8376    1.1017    2.2281 O   0  0  0  0  0  0  0  0  0  0  0  0
   -5.0720   -0.5507    0.3317 N   0  0  0  0  0  0  0  0  0  0  0  0
   -5.5338    0.4043   -0.6954 C   0  0  0  0  0  0  0  0  0  0  0  0
   -5.7852   -0.4258   -1.9693 C   0  0  0  0  0  0  0  0  0  0  0  0
   -4.4964    1.4802   -1.0192 C   0  0  0  0  0  0  0  0  0  0  0  0
   -6.8559    1.0377   -0.2503 C   0  0  0  0  0  0  0  0  0  0  0  0
   -2.0227    1.3212    1.6552 C   0  0  0  0  0  0  0  0  0  0  0  0
   -0.7275    1.6206    1.2811 C   0  0  0  0  0  0  0  0  0  0  0  0
    0.0075    0.6950    0.5439 C   0  0  0  0  0  0  0  0  0  0  0  0
   -0.5029   -0.5769    0.1705 C   0  0  0  0  0  0  0  0  0  0  0  0
  2  1  1  0
  2  3  1  0
  2  4  1  0
  4  5  1  1
  5  6  1  0
  6  7  2  0
  6  8  1  0
  8  9  2  0
  9 10  1  0
 10 11  2  0
 11 12  1  0
  4 13  1  0
 13 14  2  0
 13 15  1  0
 15 16  1  0
 16 17  2  0
 17 18  1  0
 18 19  2  0
 19 20  1  0
 20 21  2  0
 21 22  1  0
 22 23  2  0
 22 24  2  0
 22 25  1  0
 25 26  1  0
 26 27  1  0
 26 28  1  0
 26 29  1  0
 21 30  1  0
 30 31  2  0
 31 32  1  0
 32 33  2  0
 12  8  1  0
 33 16  1  0
 33 20  1  0
M  END
>  <energy>  (22) 
-1.06

>  <full_id>  (22) 
MOL00000486-001916-02_1

>  <mol_id>  (22) 
MOL00000486-001916-02

>  <act_mol>  (22) 
0

>  <act_conf>  (22) 
0

$$$$
MOL00000574-000596-04
     RDKit          3D

 34 37  0  0  0  0  0  0  0  0999 V2000
   -5.5089    2.4414    2.9614 C   0  0  0  0  0  0  0  0  0  0  0  0
   -4.2149    1.8152    2.5320 C   0  0  0  0  0  0  0  0  0  0  0  0
   -3.2229    1.5346    3.4750 C   0  0  0  0  0  0  0  0  0  0  0  0
   -2.0024    0.9856    3.0707 C   0  0  0  0  0  0  0  0  0  0  0  0
   -0.9938    0.7059    4.0546 C   0  0  0  0  0  0  0  0  0  0  0  0
   -0.2001    0.5006    4.8807 N   0  0  0  0  0  0  0  0  0  0  0  0
   -1.7710    0.7185    1.7135 C   0  0  0  0  0  0  0  0  0  0  0  0
   -2.7494    0.9825    0.7458 C   0  0  0  0  0  0  0  0  0  0  0  0
   -2.5684    0.7785   -0.6300 N   0  0  0  0  0  0  0  0  0  0  0  0
   -1.4718    0.3929   -1.4017 C   0  0  0  0  0  0  0  0  0  0  0  0
   -0.2505    0.4273   -0.9069 N   0  0  0  0  0  0  0  0  0  0  0  0
    0.7253    0.0157   -1.7024 C   0  0  0  0  0  0  0  0  0  0  0  0
    2.0420   -0.0314   -1.2242 N   0  0  0  0  0  0  0  0  0  0  0  0
    2.4488    0.1859    0.1003 C   0  0  0  0  0  0  0  0  0  0  0  0
    2.0458    1.3278    0.8008 C   0  0  0  0  0  0  0  0  0  0  0  0
    2.3017    1.4614    2.1652 C   0  0  0  0  0  0  0  0  0  0  0  0
    2.9496    0.4415    2.8635 C   0  0  0  0  0  0  0  0  0  0  0  0
    3.0320    0.5863    4.2557 N   0  0  0  0  0  0  0  0  0  0  0  0
    3.4438   -0.3501    5.1870 C   0  0  0  0  0  0  0  0  0  0  0  0
    4.0238   -1.4089    4.9703 O   0  0  0  0  0  0  0  0  0  0  0  0
    3.0870    0.0958    6.6104 C   0  0  0  0  0  0  0  0  0  0  0  0
    2.0725    1.0974    6.6446 O   0  0  0  0  0  0  0  0  0  0  0  0
    3.4069   -0.6742    2.1641 C   0  0  0  0  0  0  0  0  0  0  0  0
    3.1595   -0.7993    0.7911 C   0  0  0  0  0  0  0  0  0  0  0  0
    0.5289   -0.4234   -2.9374 N   0  0  0  0  0  0  0  0  0  0  0  0
   -0.7218   -0.3993   -3.3866 C   0  0  0  0  0  0  0  0  0  0  0  0
   -0.9685   -0.7950   -4.7052 N   0  0  0  0  0  0  0  0  0  0  0  0
   -2.3535   -1.2233   -4.9618 C   0  0  0  0  0  0  0  0  0  0  0  0
   -2.5436   -1.5282   -6.4562 C   0  0  0  0  0  0  0  0  0  0  0  0
   -1.5911   -2.4972   -6.9196 O   0  0  0  0  0  0  0  0  0  0  0  0
   -0.2584   -1.9910   -6.7454 C   0  0  0  0  0  0  0  0  0  0  0  0
    0.0474   -1.7011   -5.2672 C   0  0  0  0  0  0  0  0  0  0  0  0
   -1.7454    0.0119   -2.6422 N   0  0  0  0  0  0  0  0  0  0  0  0
   -3.9608    1.5507    1.1779 C   0  0  0  0  0  0  0  0  0  0  0  0
  1  2  1  0
  2  3  2  0
  3  4  1  0
  4  5  1  0
  5  6  3  0
  4  7  2  0
  7  8  1  0
  8  9  1  0
  9 10  1  0
 10 11  2  0
 11 12  1  0
 12 13  1  0
 13 14  1  0
 14 15  2  0
 15 16  1  0
 16 17  2  0
 17 18  1  0
 18 19  1  0
 19 20  2  0
 19 21  1  0
 21 22  1  0
 17 23  1  0
 23 24  2  0
 12 25  2  0
 25 26  1  0
 26 27  1  0
 27 28  1  0
 28 29  1  0
 29 30  1  0
 30 31  1  0
 31 32  1  0
 26 33  2  0
  8 34  2  0
 34  2  1  0
 33 10  1  0
 24 14  1  0
 32 27  1  0
M  END
>  <energy>  (23) 
-132.30

>  <full_id>  (23) 
MOL00000574-000596-04_1

>  <mol_id>  (23) 
MOL00000574-000596-04

>  <act_mol>  (23) 
0

>  <act_conf>  (23) 
0

$$$$
MOL00000752-001354-03
     RDKit          3D

 26 27  0  0  0  0  0  0  0  0999 V2000
    2.1663   -1.7289   -2.3877 C   0  0  0  0  0  0  0  0  0  0  0  0
    3.0319   -0.5882   -1.8800 C   0  0  0  0  0  0  0  0  0  0  0  0
    2.3809   -0.0200   -0.7435 O   0  0  0  0  0  0  0  0  0  0  0  0
    2.9059    1.1082   -0.1755 C   0  0  0  0  0  0  0  0  0  0  0  0
    2.1435    1.7421    0.8348 C   0  0  0  0  0  0  0  0  0  0  0  0
    0.8116    1.2539    1.3204 C   0  0  0  0  0  0  0  0  0  0  0  0
    0.1332    1.9353    2.0898 O   0  0  0  0  0  0  0  0  0  0  0  0
    0.3741    0.0197    0.8840 N   0  0  0  0  0  0  0  0  0  0  0  0
   -0.9704   -0.3114    1.1249 N   0  0  0  0  0  0  0  0  0  0  0  0
   -1.6434   -0.9853    0.1207 C   0  0  0  0  0  0  0  0  0  0  0  0
   -1.0708   -1.5087   -0.8376 O   0  0  0  0  0  0  0  0  0  0  0  0
   -3.1629   -1.1079    0.3553 C   0  0  1  0  0  0  0  0  0  0  0  0
   -3.8088   -1.3978   -0.9247 N   0  0  0  0  0  0  0  0  0  0  0  0
   -4.2246   -0.3646   -1.7117 C   0  0  0  0  0  0  0  0  0  0  0  0
   -4.6483   -0.7908   -2.9273 N   0  0  0  0  0  0  0  0  0  0  0  0
   -4.2426    0.8139   -1.3943 O   0  0  0  0  0  0  0  0  0  0  0  0
   -3.4711   -2.1783    1.4276 C   0  0  0  0  0  0  0  0  0  0  0  0
   -3.0999   -3.6001    0.9917 C   0  0  0  0  0  0  0  0  0  0  0  0
   -4.9467   -2.1291    1.8356 C   0  0  0  0  0  0  0  0  0  0  0  0
    2.6249    2.9247    1.4532 C   0  0  0  0  0  0  0  0  0  0  0  0
    3.8504    3.4824    1.0944 C   0  0  0  0  0  0  0  0  0  0  0  0
    4.5761    2.8395    0.1194 C   0  0  0  0  0  0  0  0  0  0  0  0
    4.1282    1.6890   -0.5002 C   0  0  0  0  0  0  0  0  0  0  0  0
    5.0393    1.2482   -1.4174 O   0  0  0  0  0  0  0  0  0  0  0  0
    6.0795    2.2372   -1.3069 C   0  0  0  0  0  0  0  0  0  0  0  0
    5.7910    3.2530   -0.3326 O   0  0  0  0  0  0  0  0  0  0  0  0
  1  2  1  0
  2  3  1  0
  3  4  1  0
  4  5  2  0
  5  6  1  0
  6  7  2  0
  6  8  1  0
  8  9  1  0
  9 10  1  0
 10 11  2  0
 10 12  1  0
 12 13  1  6
 13 14  1  0
 14 15  1  0
 14 16  2  0
 12 17  1  0
 17 18  1  0
 17 19  1  0
  5 20  1  0
 20 21  2  0
 21 22  1  0
 22 23  2  0
 23 24  1  0
 24 25  1  0
 25 26  1  0
 23  4  1  0
 26 22  1  0
M  END
>  <energy>  (24) 
-15.00

>  <full_id>  (24) 
MOL00000752-001354-03_1

>  <mol_id>  (24) 
MOL00000752-001354-03

>  <act_mol>  (24) 
0

>  <act_conf>  (24) 
0

$$$$
MOL00000616-000258-04
     RDKit          3D

 30 30  0  0  0  0  0  0  0  0999 V2000
   -7.1591    0.4616    3.5818 C   0  0  0  0  0  0  0  0  0  0  0  0
   -5.8045   -0.2495    3.6631 C   0  0  0  0  0  0  0  0  0  0  0  0
   -5.0542    0.2190    4.9096 C   0  0  0  0  0  0  0  0  0  0  0  0
   -5.0093    0.0028    2.3673 C   0  0  0  0  0  0  0  0  0  0  0  0
   -3.6573   -0.7151    2.2661 C   0  0  2  0  0  0  0  0  0  0  0  0
   -2.9648   -0.2748    1.0540 N   0  0  0  0  0  0  0  0  0  0  0  0
   -1.6078   -0.4360    0.9118 C   0  0  0  0  0  0  0  0  0  0  0  0
   -0.8846   -0.7930    1.8455 O   0  0  0  0  0  0  0  0  0  0  0  0
   -1.0288   -0.1082   -0.4841 C   0  0  2  0  0  0  0  0  0  0  0  0
   -1.6004   -1.0315   -1.5695 C   0  0  0  0  0  0  0  0  0  0  0  0
   -2.8139   -0.4607   -2.2253 C   0  0  0  0  0  0  0  0  0  0  0  0
   -3.0032   -0.1172   -3.5455 C   0  0  0  0  0  0  0  0  0  0  0  0
   -4.2828    0.3570   -3.6174 N   0  0  0  0  0  0  0  0  0  0  0  0
   -4.8178    0.2872   -2.3628 C   0  0  0  0  0  0  0  0  0  0  0  0
   -3.9556   -0.1963   -1.4973 N   0  0  0  0  0  0  0  0  0  0  0  0
    0.4268   -0.2573   -0.3639 N   0  0  0  0  0  0  0  0  0  0  0  0
    1.2993    0.3119   -1.2579 C   0  0  0  0  0  0  0  0  0  0  0  0
    0.9308    0.9214   -2.2558 O   0  0  0  0  0  0  0  0  0  0  0  0
    2.7473    0.1124   -0.8765 C   0  0  0  0  0  0  0  0  0  0  0  0
    3.6845    0.7010   -1.9219 C   0  0  0  0  0  0  0  0  0  0  0  0
    5.0731    0.5745   -1.5300 N   0  0  0  0  0  0  0  0  0  0  0  0
    5.7610   -0.6173   -1.6116 C   0  0  0  0  0  0  0  0  0  0  0  0
    5.3086   -1.6316   -2.1336 O   0  0  0  0  0  0  0  0  0  0  0  0
    7.1783   -0.5433   -1.0310 C   0  0  0  0  0  0  0  0  0  0  0  0
    7.2209    0.3387    0.1673 N   0  0  0  0  0  0  0  0  0  0  0  0
    6.5940   -0.3296    1.3150 C   0  0  0  0  0  0  0  0  0  0  0  0
    8.6154    0.6538    0.4896 C   0  0  0  0  0  0  0  0  0  0  0  0
   -3.8439   -2.2323    2.1865 C   0  0  0  0  0  0  0  0  0  0  0  0
   -3.9972   -2.9039    1.1771 O   0  0  0  0  0  0  0  0  0  0  0  0
   -3.8523   -2.8284    3.3972 O   0  0  0  0  0  0  0  0  0  0  0  0
  2  1  1  0
  2  3  1  0
  2  4  1  0
  5  4  1  6
  5  6  1  0
  6  7  1  0
  7  8  2  0
  7  9  1  0
  9 10  1  6
 10 11  1  0
 11 12  2  0
 12 13  1  0
 13 14  1  0
 14 15  2  0
  9 16  1  0
 16 17  1  0
 17 18  2  0
 17 19  1  0
 19 20  1  0
 20 21  1  0
 21 22  1  0
 22 23  2  0
 22 24  1  0
 24 25  1  0
 25 26  1  0
 25 27  1  0
  5 28  1  0
 28 29  2  0
 28 30  1  0
 15 11  1  0
M  END
>  <energy>  (25) 
11.08

>  <full_id>  (25) 
MOL00000616-000258-04_1

>  <mol_id>  (25) 
MOL00000616-000258-04

>  <act_mol>  (25) 
0

>  <act_conf>  (25) 
0

$$$$
MOL00000823-000029-04
     RDKit          3D

 27 29  0  0  0  0  0  0  0  0999 V2000
    1.5421    0.0466   -2.5693 C   0  0  0  0  0  0  0  0  0  0  0  0
    1.9289    0.1378   -1.1160 C   0  0  0  0  0  0  0  0  0  0  0  0
    3.2812    0.3921   -0.8024 C   0  0  0  0  0  0  0  0  0  0  0  0
    3.7126    0.4884    0.5199 C   0  0  0  0  0  0  0  0  0  0  0  0
    5.0439    0.7368    0.9027 N   0  0  0  0  0  0  0  0  0  0  0  0
    6.1494    0.9403    0.0843 C   0  0  0  0  0  0  0  0  0  0  0  0
    6.1511    0.9509   -1.1446 O   0  0  0  0  0  0  0  0  0  0  0  0
    7.4278    1.1775    0.8907 C   0  0  0  0  0  0  0  0  0  0  0  0
    7.2233    0.9802    2.2295 F   0  0  0  0  0  0  0  0  0  0  0  0
    7.8877    2.4529    0.7703 F   0  0  0  0  0  0  0  0  0  0  0  0
    2.7754    0.3283    1.5409 C   0  0  0  0  0  0  0  0  0  0  0  0
    1.4306    0.0759    1.2467 C   0  0  0  0  0  0  0  0  0  0  0  0
    0.9915   -0.0248   -0.0759 C   0  0  0  0  0  0  0  0  0  0  0  0
   -0.3569   -0.2730   -0.4043 N   0  0  0  0  0  0  0  0  0  0  0  0
   -1.4111   -0.5274    0.4478 C   0  0  0  0  0  0  0  0  0  0  0  0
   -1.4075   -0.6333    1.6627 O   0  0  0  0  0  0  0  0  0  0  0  0
   -2.7212   -0.7068   -0.3209 C   0  0  0  0  0  0  0  0  0  0  0  0
   -2.6310   -1.3794   -1.4357 N   0  0  0  0  0  0  0  0  0  0  0  0
   -3.7684   -1.5748   -2.1585 N   0  0  0  0  0  0  0  0  0  0  0  0
   -5.0270   -1.1388   -1.8198 C   0  0  0  0  0  0  0  0  0  0  0  0
   -6.0105   -1.3797   -2.5101 O   0  0  0  0  0  0  0  0  0  0  0  0
   -5.1284   -0.3478   -0.5815 C   0  0  0  0  0  0  0  0  0  0  0  0
   -6.3650    0.1774   -0.1861 C   0  0  0  0  0  0  0  0  0  0  0  0
   -6.4513    0.9474    0.9724 C   0  0  0  0  0  0  0  0  0  0  0  0
   -5.3060    1.1943    1.7279 C   0  0  0  0  0  0  0  0  0  0  0  0
   -4.0716    0.6687    1.3322 C   0  0  0  0  0  0  0  0  0  0  0  0
   -3.9812   -0.1155    0.1763 C   0  0  0  0  0  0  0  0  0  0  0  0
  1  2  1  0
  2  3  2  0
  3  4  1  0
  4  5  1  0
  5  6  1  0
  6  7  2  0
  6  8  1  0
  8  9  1  0
  8 10  1  0
  4 11  2  0
 11 12  1  0
 12 13  2  0
 13 14  1  0
 14 15  1  0
 15 16  2  0
 15 17  1  0
 17 18  2  0
 18 19  1  0
 19 20  1  0
 20 21  2  0
 20 22  1  0
 22 23  2  0
 23 24  1  0
 24 25  2  0
 25 26  1  0
 26 27  2  0
 13  2  1  0
 27 17  1  0
 27 22  1  0
M  END
>  <energy>  (26) 
131.99

>  <full_id>  (26) 
MOL00000823-000029-04_1

>  <mol_id>  (26) 
MOL00000823-000029-04

>  <act_mol>  (26) 
0

>  <act_conf>  (26) 
0

$$$$
MOL00000639-000603-04
     RDKit          3D

 30 31  0  0  0  0  0  0  0  0999 V2000
   -7.5687    3.5091   -0.3233 C   0  0  0  0  0  0  0  0  0  0  0  0
   -7.5318    2.0034   -0.5352 C   0  0  0  0  0  0  0  0  0  0  0  0
   -6.3978    1.3054    0.2225 C   0  0  0  0  0  0  0  0  0  0  0  0
   -4.9733    1.7491   -0.1606 C   0  0  2  0  0  0  0  0  0  0  0  0
   -4.6099    1.5374   -1.6461 C   0  0  0  0  0  0  0  0  0  0  0  0
   -4.8791    0.1562   -2.2682 C   0  0  0  0  0  0  0  0  0  0  0  0
   -4.2103   -1.0527   -1.6065 C   0  0  0  0  0  0  0  0  0  0  0  0
   -2.6787   -1.0074   -1.6254 C   0  0  0  0  0  0  0  0  0  0  0  0
   -2.0419   -1.9932   -0.6268 C   0  0  1  0  0  0  0  0  0  0  0  0
   -2.2804   -3.4492   -1.0200 C   0  0  0  0  0  0  0  0  0  0  0  0
   -0.6083   -1.7429   -0.5182 N   0  0  0  0  0  0  0  0  0  0  0  0
   -0.0935   -0.7363    0.2682 C   0  0  0  0  0  0  0  0  0  0  0  0
   -0.7943   -0.0339    0.9955 O   0  0  0  0  0  0  0  0  0  0  0  0
    1.3344   -0.5366    0.1580 C   0  0  0  0  0  0  0  0  0  0  0  0
    2.3251   -1.2129   -0.5361 C   0  0  0  0  0  0  0  0  0  0  0  0
    3.5706   -0.5714   -0.2841 C   0  0  0  0  0  0  0  0  0  0  0  0
    4.8950   -0.8019   -0.7057 C   0  0  0  0  0  0  0  0  0  0  0  0
    5.9274    0.0401   -0.2538 C   0  0  0  0  0  0  0  0  0  0  0  0
    7.3532   -0.2170   -0.6783 C   0  0  0  0  0  0  0  0  0  0  0  0
    8.0232   -1.2489    0.2244 C   0  0  0  0  0  0  0  0  0  0  0  0
    9.4579   -1.4908   -0.1798 C   0  0  0  0  0  0  0  0  0  0  0  0
   10.1035   -2.4224    0.5803 N   0  0  0  0  0  0  0  0  0  0  0  0
   10.0337   -0.9193   -1.0972 O   0  0  0  0  0  0  0  0  0  0  0  0
    5.6305    1.0965    0.6152 C   0  0  0  0  0  0  0  0  0  0  0  0
    4.3218    1.3440    1.0441 C   0  0  0  0  0  0  0  0  0  0  0  0
    3.3164    0.4920    0.5767 C   0  0  0  0  0  0  0  0  0  0  0  0
    1.9654    0.4921    0.8243 N   0  0  0  0  0  0  0  0  0  0  0  0
   -3.9485    1.1080    0.7603 C   0  0  0  0  0  0  0  0  0  0  0  0
   -4.1445    0.1953    1.5460 O   0  0  0  0  0  0  0  0  0  0  0  0
   -2.7251    1.6515    0.6073 O   0  0  0  0  0  0  0  0  0  0  0  0
  1  2  1  0
  2  3  1  0
  4  3  1  6
  4  5  1  0
  5  6  1  0
  6  7  1  0
  7  8  1  0
  8  9  1  0
  9 10  1  6
  9 11  1  0
 11 12  1  0
 12 13  2  0
 12 14  1  0
 14 15  2  0
 15 16  1  0
 16 17  2  0
 17 18  1  0
 18 19  1  0
 19 20  1  0
 20 21  1  0
 21 22  1  0
 21 23  2  0
 18 24  2  0
 24 25  1  0
 25 26  2  0
 26 27  1  0
  4 28  1  0
 28 29  2  0
 28 30  1  0
 27 14  1  0
 26 16  1  0
M  END
>  <energy>  (27) 
-77.32

>  <full_id>  (27) 
MOL00000639-000603-04_1

>  <mol_id>  (27) 
MOL00000639-000603-04

>  <act_mol>  (27) 
0

>  <act_conf>  (27) 
0

$$$$
MOL00000832-001537-02
     RDKit          3D

 30 33  0  0  0  0  0  0  0  0999 V2000
   -6.6618   -2.2438   -1.1885 C   0  0  0  0  0  0  0  0  0  0  0  0
   -7.1509   -1.1357   -0.3339 C   0  0  0  0  0  0  0  0  0  0  0  0
   -8.4733   -1.0259    0.0086 N   0  0  0  0  0  0  0  0  0  0  0  0
   -8.7542    0.0535    0.7547 N   0  0  0  0  0  0  0  0  0  0  0  0
   -7.5681    0.6464    0.9041 C   0  0  0  0  0  0  0  0  0  0  0  0
   -6.5240   -0.0537    0.2582 C   0  0  0  0  0  0  0  0  0  0  0  0
   -5.1133    0.2651    0.1674 C   0  0  0  0  0  0  0  0  0  0  0  0
   -4.7094    1.5533   -0.1954 C   0  0  0  0  0  0  0  0  0  0  0  0
   -3.3493    1.8716   -0.2771 C   0  0  0  0  0  0  0  0  0  0  0  0
   -2.3730    0.9104    0.0076 C   0  0  0  0  0  0  0  0  0  0  0  0
   -1.0300    1.3068   -0.0972 N   0  0  0  0  0  0  0  0  0  0  0  0
    0.0976    0.5474    0.1266 C   0  0  0  0  0  0  0  0  0  0  0  0
    0.1939   -0.6254    0.4610 O   0  0  0  0  0  0  0  0  0  0  0  0
    1.3954    1.3542   -0.0948 C   0  0  0  0  0  0  0  0  0  0  0  0
    1.2992    2.5268   -0.4294 O   0  0  0  0  0  0  0  0  0  0  0  0
    2.5211    0.5903    0.1357 N   0  0  0  0  0  0  0  0  0  0  0  0
    3.8796    0.9563    0.0089 C   0  0  0  0  0  0  0  0  0  0  0  0
    4.2376    2.2206   -0.4724 C   0  0  0  0  0  0  0  0  0  0  0  0
    5.5715    2.5668   -0.6580 C   0  0  0  0  0  0  0  0  0  0  0  0
    6.5741    1.6403   -0.3988 C   0  0  0  0  0  0  0  0  0  0  0  0
    6.2573    0.3550    0.0789 C   0  0  0  0  0  0  0  0  0  0  0  0
    7.3308   -0.5733    0.2331 N   0  0  0  0  0  0  0  0  0  0  0  0
    8.6883   -0.3404    0.2080 C   0  0  0  0  0  0  0  0  0  0  0  0
    9.3362   -1.4756    0.3300 N   0  0  0  0  0  0  0  0  0  0  0  0
    8.3732   -2.4393    0.4272 N   0  0  0  0  0  0  0  0  0  0  0  0
    7.1614   -1.9084    0.3647 N   0  0  0  0  0  0  0  0  0  0  0  0
    4.8971    0.0204    0.3508 C   0  0  0  0  0  0  0  0  0  0  0  0
    4.5206   -1.2850    1.0201 C   0  0  0  0  0  0  0  0  0  0  0  0
   -2.7758   -0.3729    0.3779 C   0  0  0  0  0  0  0  0  0  0  0  0
   -4.1371   -0.6926    0.4593 C   0  0  0  0  0  0  0  0  0  0  0  0
  1  2  1  0
  2  3  1  0
  3  4  1  0
  4  5  2  0
  5  6  1  0
  6  7  1  0
  7  8  2  0
  8  9  1  0
  9 10  2  0
 10 11  1  0
 11 12  1  0
 12 13  2  0
 12 14  1  0
 14 15  2  0
 14 16  1  0
 16 17  1  0
 17 18  2  0
 18 19  1  0
 19 20  2  0
 20 21  1  0
 21 22  1  0
 22 23  1  0
 23 24  2  0
 24 25  1  0
 25 26  2  0
 21 27  2  0
 27 28  1  0
 10 29  1  0
 29 30  2  0
  6  2  2  0
 30  7  1  0
 27 17  1  0
 26 22  1  0
M  END
>  <energy>  (28) 
91.14

>  <full_id>  (28) 
MOL00000832-001537-02_1

>  <mol_id>  (28) 
MOL00000832-001537-02

>  <act_mol>  (28) 
0

>  <act_conf>  (28) 
0

$$$$
MOL00000779-000012-04
     RDKit          3D

 31 33  0  0  0  0  0  0  0  0999 V2000
   -1.4229    5.0454    3.8042 C   0  0  0  0  0  0  0  0  0  0  0  0
   -2.4502    4.9840    2.6748 C   0  0  0  0  0  0  0  0  0  0  0  0
   -2.9597    6.3956    2.3682 C   0  0  0  0  0  0  0  0  0  0  0  0
   -1.9039    4.3382    1.3838 C   0  0  0  0  0  0  0  0  0  0  0  0
   -1.4813    2.8698    1.5428 C   0  0  1  0  0  0  0  0  0  0  0  0
   -1.5267    2.1997    0.2452 N   0  0  0  0  0  0  0  0  0  0  0  0
   -1.6069    0.8395    0.1380 C   0  0  0  0  0  0  0  0  0  0  0  0
   -1.7196    0.0880    1.0997 O   0  0  0  0  0  0  0  0  0  0  0  0
   -1.4891    0.4746   -1.1901 O   0  0  0  0  0  0  0  0  0  0  0  0
   -1.5278   -0.9096   -1.3811 C   0  0  0  0  0  0  0  0  0  0  0  0
   -0.3121   -1.5600   -1.5993 C   0  0  0  0  0  0  0  0  0  0  0  0
   -0.2995   -2.9356   -1.8262 C   0  0  0  0  0  0  0  0  0  0  0  0
   -1.4992   -3.6497   -1.8488 C   0  0  0  0  0  0  0  0  0  0  0  0
   -2.7161   -2.9889   -1.6551 C   0  0  0  0  0  0  0  0  0  0  0  0
   -2.7348   -1.6120   -1.4287 C   0  0  0  0  0  0  0  0  0  0  0  0
   -4.2539   -0.8177   -1.2426 Cl  0  0  0  0  0  0  0  0  0  0  0  0
   -0.0330    2.7134    2.0600 C   0  0  0  0  0  0  0  0  0  0  0  0
    0.8504    3.5429    1.8602 O   0  0  0  0  0  0  0  0  0  0  0  0
    0.1895    1.5047    2.6907 N   0  0  0  0  0  0  0  0  0  0  0  0
    1.5112    1.0839    3.0846 C   0  0  0  0  0  0  0  0  0  0  0  0
    2.1670    0.2762    1.9933 C   0  0  0  0  0  0  0  0  0  0  0  0
    1.9082   -1.0945    1.8706 C   0  0  0  0  0  0  0  0  0  0  0  0
    2.4966   -1.8390    0.8458 C   0  0  0  0  0  0  0  0  0  0  0  0
    3.3465   -1.2166   -0.0801 C   0  0  0  0  0  0  0  0  0  0  0  0
    3.9158   -1.9820   -1.1247 N   0  0  0  0  0  0  0  0  0  0  0  0
    4.7736   -1.5979   -2.1244 C   0  0  0  0  0  0  0  0  0  0  0  0
    5.0285   -2.6268   -2.8999 N   0  0  0  0  0  0  0  0  0  0  0  0
    4.3202   -3.6733   -2.3729 N   0  0  0  0  0  0  0  0  0  0  0  0
    3.6427   -3.2967   -1.2979 N   0  0  0  0  0  0  0  0  0  0  0  0
    3.6021    0.1562    0.0307 C   0  0  0  0  0  0  0  0  0  0  0  0
    3.0083    0.8947    1.0592 C   0  0  0  0  0  0  0  0  0  0  0  0
  2  1  1  0
  2  3  1  0
  2  4  1  0
  5  4  1  6
  5  6  1  0
  6  7  1  0
  7  8  2  0
  7  9  1  0
  9 10  1  0
 10 11  2  0
 11 12  1  0
 12 13  2  0
 13 14  1  0
 14 15  2  0
 15 16  1  0
  5 17  1  0
 17 18  2  0
 17 19  1  0
 19 20  1  0
 20 21  1  0
 21 22  2  0
 22 23  1  0
 23 24  2  0
 24 25  1  0
 25 26  1  0
 26 27  2  0
 27 28  1  0
 28 29  2  0
 24 30  1  0
 30 31  2  0
 15 10  1  0
 31 21  1  0
 29 25  1  0
M  END
>  <energy>  (29) 
24.20

>  <full_id>  (29) 
MOL00000779-000012-04_1

>  <mol_id>  (29) 
MOL00000779-000012-04

>  <act_mol>  (29) 
0

>  <act_conf>  (29) 
0

$$$$
MOL00000612-000936-03
     RDKit          3D

 36 40  0  0  0  0  0  0  0  0999 V2000
   10.5528    0.0122    1.1301 C   0  0  0  0  0  0  0  0  0  0  0  0
    9.7882   -0.9433    0.2197 C   0  0  0  0  0  0  0  0  0  0  0  0
    8.3280   -0.7560    0.2762 N   0  0  0  0  0  0  0  0  0  0  0  0
    7.6578   -1.8762   -0.4068 C   0  0  0  0  0  0  0  0  0  0  0  0
    6.1362   -1.7659   -0.3067 C   0  0  0  0  0  0  0  0  0  0  0  0
    5.6489   -0.4282   -0.8765 C   0  0  0  0  0  0  0  0  0  0  0  0
    4.1417   -0.2721   -0.7721 C   0  0  0  0  0  0  0  0  0  0  0  0
    3.4855   -0.2644    0.4679 C   0  0  0  0  0  0  0  0  0  0  0  0
    2.0963   -0.1254    0.5414 C   0  0  0  0  0  0  0  0  0  0  0  0
    1.3384    0.0197   -0.6254 C   0  0  0  0  0  0  0  0  0  0  0  0
   -0.1097    0.1889   -0.5582 C   0  0  0  0  0  0  0  0  0  0  0  0
   -0.9017   -0.6515   -1.2404 N   0  0  0  0  0  0  0  0  0  0  0  0
   -2.1512   -0.2712   -0.9178 N   0  0  0  0  0  0  0  0  0  0  0  0
   -2.2004    0.7900   -0.0617 C   0  0  0  0  0  0  0  0  0  0  0  0
   -0.8777    1.1628    0.1535 C   0  0  0  0  0  0  0  0  0  0  0  0
   -0.4876    2.3135    0.9507 C   0  0  0  0  0  0  0  0  0  0  0  0
    0.7826    2.7872    0.7966 N   0  0  0  0  0  0  0  0  0  0  0  0
   -1.2625    2.9000    1.7045 O   0  0  0  0  0  0  0  0  0  0  0  0
   -3.3296    1.3725    0.4139 N   0  0  0  0  0  0  0  0  0  0  0  0
   -4.6826    0.9725    0.4057 C   0  0  0  0  0  0  0  0  0  0  0  0
   -5.6237    1.9482    0.7944 C   0  0  0  0  0  0  0  0  0  0  0  0
   -6.9968    1.6945    0.8046 C   0  0  0  0  0  0  0  0  0  0  0  0
   -7.4776    0.4484    0.4133 C   0  0  0  0  0  0  0  0  0  0  0  0
   -8.9549    0.1470    0.4480 C   0  0  0  0  0  0  0  0  0  0  0  0
   -9.3716   -0.4402    1.7935 C   0  0  0  0  0  0  0  0  0  0  0  0
  -10.8496   -0.7507    1.8297 C   0  0  0  0  0  0  0  0  0  0  0  0
  -11.2794   -1.2817    3.0111 N   0  0  0  0  0  0  0  0  0  0  0  0
  -11.6277   -0.5646    0.9032 O   0  0  0  0  0  0  0  0  0  0  0  0
   -6.5588   -0.5288    0.0149 C   0  0  0  0  0  0  0  0  0  0  0  0
   -5.1686   -0.2771   -0.0127 C   0  0  0  0  0  0  0  0  0  0  0  0
   -4.2675   -1.4084   -0.4426 C   0  0  0  0  0  0  0  0  0  0  0  0
   -3.2660   -0.9840   -1.4988 C   0  0  0  0  0  0  0  0  0  0  0  0
    1.9840   -0.0033   -1.8659 C   0  0  0  0  0  0  0  0  0  0  0  0
    3.3727   -0.1437   -1.9381 C   0  0  0  0  0  0  0  0  0  0  0  0
    6.3991    0.7282   -0.2042 C   0  0  0  0  0  0  0  0  0  0  0  0
    7.9138    0.5314   -0.3034 C   0  0  0  0  0  0  0  0  0  0  0  0
  1  2  1  0
  2  3  1  0
  3  4  1  0
  4  5  1  0
  5  6  1  0
  6  7  1  0
  7  8  2  0
  8  9  1  0
  9 10  2  0
 10 11  1  0
 11 12  2  0
 12 13  1  0
 13 14  1  0
 14 15  2  0
 15 16  1  0
 16 17  1  0
 16 18  2  0
 14 19  1  0
 19 20  1  0
 20 21  2  0
 21 22  1  0
 22 23  2  0
 23 24  1  0
 24 25  1  0
 25 26  1  0
 26 27  1  0
 26 28  2  0
 23 29  1  0
 29 30  2  0
 30 31  1  0
 31 32  1  0
 10 33  1  0
 33 34  2  0
  6 35  1  0
 35 36  1  0
 36  3  1  0
 34  7  1  0
 15 11  1  0
 30 20  1  0
 32 13  1  0
M  END
>  <energy>  (30) 
9.71

>  <full_id>  (30) 
MOL00000612-000936-03_1

>  <mol_id>  (30) 
MOL00000612-000936-03

>  <act_mol>  (30) 
0

>  <act_conf>  (30) 
0

$$$$
MOL00000818-000771-04
     RDKit          3D

 27 30  0  0  0  0  0  0  0  0999 V2000
    5.7700   -2.2640    1.7165 C   0  0  0  0  0  0  0  0  0  0  0  0
    4.3529   -1.8108    1.3777 C   0  0  0  0  0  0  0  0  0  0  0  0
    4.2771   -0.9259    0.2013 N   0  0  0  0  0  0  0  0  0  0  0  0
    5.0652    0.3127    0.3331 C   0  0  0  0  0  0  0  0  0  0  0  0
    4.6873    1.2098    1.4776 C   0  0  0  0  0  0  0  0  0  0  0  0
    5.1290    2.6538    1.4627 C   0  0  0  0  0  0  0  0  0  0  0  0
    3.6729    2.3161    1.3181 C   0  0  0  0  0  0  0  0  0  0  0  0
    2.8675   -0.6305   -0.1110 C   0  0  1  0  0  0  0  0  0  0  0  0
    2.7392   -0.0362   -1.5403 C   0  0  0  0  0  0  0  0  0  0  0  0
    1.5367   -0.9832   -1.7601 C   0  0  2  0  0  0  0  0  0  0  0  0
    0.2389   -0.3997   -1.3889 N   0  0  0  0  0  0  0  0  0  0  0  0
   -0.9511   -1.0927   -1.4578 C   0  0  0  0  0  0  0  0  0  0  0  0
   -1.0494   -2.2613   -1.8179 O   0  0  0  0  0  0  0  0  0  0  0  0
   -2.1124   -0.2873   -1.0500 C   0  0  0  0  0  0  0  0  0  0  0  0
   -3.4684   -0.7066   -1.0096 C   0  0  0  0  0  0  0  0  0  0  0  0
   -4.1889    0.3842   -0.5665 C   0  0  0  0  0  0  0  0  0  0  0  0
   -5.5876    0.6184   -0.3103 C   0  0  0  0  0  0  0  0  0  0  0  0
   -5.9887    1.7079    0.0954 O   0  0  0  0  0  0  0  0  0  0  0  0
   -6.4160   -0.4621   -0.5549 N   0  0  0  0  0  0  0  0  0  0  0  0
   -7.7822   -0.4024   -0.3592 C   0  0  0  0  0  0  0  0  0  0  0  0
   -8.7379   -1.3717   -0.5521 C   0  0  0  0  0  0  0  0  0  0  0  0
   -9.9524   -0.7536   -0.1938 C   0  0  0  0  0  0  0  0  0  0  0  0
   -9.7873    0.5118    0.1978 N   0  0  0  0  0  0  0  0  0  0  0  0
   -8.4597    0.7039    0.0890 N   0  0  0  0  0  0  0  0  0  0  0  0
   -3.2542    1.3663   -0.3720 N   0  0  0  0  0  0  0  0  0  0  0  0
   -1.9925    0.9957   -0.6537 N   0  0  0  0  0  0  0  0  0  0  0  0
    2.1664   -1.8941   -0.6806 C   0  0  0  0  0  0  0  0  0  0  0  0
  1  2  1  0
  2  3  1  0
  3  4  1  0
  5  4  1  0
  5  6  1  0
  6  7  1  0
  8  3  1  6
  8  9  1  0
  9 10  1  0
 10 11  1  1
 11 12  1  0
 12 13  2  0
 12 14  1  0
 14 15  1  0
 15 16  2  0
 16 17  1  0
 17 18  2  0
 17 19  1  0
 19 20  1  0
 20 21  2  0
 21 22  1  0
 22 23  2  0
 23 24  1  0
 16 25  1  0
 25 26  1  0
 10 27  1  0
  7  5  1  0
 27  8  1  0
 26 14  2  0
 24 20  1  0
M  END
>  <energy>  (31) 
39.69

>  <full_id>  (31) 
MOL00000818-000771-04_1

>  <mol_id>  (31) 
MOL00000818-000771-04

>  <act_mol>  (31) 
0

>  <act_conf>  (31) 
0

$$$$
MOL00000863-001245-04
     RDKit          3D

 28 31  0  0  0  0  0  0  0  0999 V2000
   -8.0829   -2.0131   -0.1732 N   0  0  0  0  0  0  0  0  0  0  0  0
   -6.6315   -1.8331    0.0140 C   0  0  0  0  0  0  0  0  0  0  0  0
   -6.2287   -0.3653   -0.2183 C   0  0  0  0  0  0  0  0  0  0  0  0
   -7.0848    0.4883   -0.4688 O   0  0  0  0  0  0  0  0  0  0  0  0
   -4.8669   -0.0569   -0.1542 N   0  0  0  0  0  0  0  0  0  0  0  0
   -3.8866   -0.9423    0.4768 C   0  0  0  0  0  0  0  0  0  0  0  0
   -2.4859   -0.7459   -0.0902 C   0  0  0  0  0  0  0  0  0  0  0  0
   -2.0781    0.7293   -0.0466 C   0  0  0  0  0  0  0  0  0  0  0  0
   -0.7510    0.9299   -0.6207 N   0  0  0  0  0  0  0  0  0  0  0  0
    0.3853    0.6029    0.1014 C   0  0  0  0  0  0  0  0  0  0  0  0
    0.3238    0.1956    1.2531 O   0  0  0  0  0  0  0  0  0  0  0  0
    1.5128    0.8191   -0.6472 N   0  0  0  0  0  0  0  0  0  0  0  0
    2.8083    0.5574   -0.2827 C   0  0  0  0  0  0  0  0  0  0  0  0
    3.8086    0.9767   -1.0196 N   0  0  0  0  0  0  0  0  0  0  0  0
    5.0087    0.5748   -0.4564 C   0  0  0  0  0  0  0  0  0  0  0  0
    6.2926    0.8602   -0.9718 C   0  0  0  0  0  0  0  0  0  0  0  0
    7.3788    0.3719   -0.2699 C   0  0  0  0  0  0  0  0  0  0  0  0
    7.2389   -0.3631    0.8822 C   0  0  0  0  0  0  0  0  0  0  0  0
    6.0055   -0.6693    1.4254 C   0  0  0  0  0  0  0  0  0  0  0  0
    4.8893   -0.1784    0.7220 C   0  0  0  0  0  0  0  0  0  0  0  0
    3.2168   -0.3603    1.0883 S   0  0  0  0  0  0  0  0  0  0  0  0
    8.4373   -0.7415    1.4062 O   0  0  0  0  0  0  0  0  0  0  0  0
    9.3294   -0.1569    0.4473 C   0  0  0  0  0  0  0  0  0  0  0  0
   10.0919   -1.1411   -0.0884 F   0  0  0  0  0  0  0  0  0  0  0  0
   10.1569    0.6997    1.0938 F   0  0  0  0  0  0  0  0  0  0  0  0
    8.6823    0.5505   -0.6193 O   0  0  0  0  0  0  0  0  0  0  0  0
   -3.1109    1.5736   -0.7914 C   0  0  0  0  0  0  0  0  0  0  0  0
   -4.5050    1.3585   -0.2167 C   0  0  0  0  0  0  0  0  0  0  0  0
  1  2  1  0
  2  3  1  0
  3  4  2  0
  3  5  1  0
  5  6  1  0
  6  7  1  0
  7  8  1  0
  8  9  1  0
  9 10  1  0
 10 11  2  0
 10 12  1  0
 12 13  1  0
 13 14  2  0
 14 15  1  0
 15 16  2  0
 16 17  1  0
 17 18  2  0
 18 19  1  0
 19 20  2  0
 20 21  1  0
 18 22  1  0
 22 23  1  0
 23 24  1  0
 23 25  1  0
 23 26  1  0
  8 27  1  0
 27 28  1  0
 28  5  1  0
 21 13  1  0
 20 15  1  0
 26 17  1  0
M  END
>  <energy>  (32) 
-64.83

>  <full_id>  (32) 
MOL00000863-001245-04_1

>  <mol_id>  (32) 
MOL00000863-001245-04

>  <act_mol>  (32) 
0

>  <act_conf>  (32) 
0

$$$$
MOL00000971-000312-03
     RDKit          3D

 24 25  0  0  0  0  0  0  0  0999 V2000
    1.7577    1.0017   -2.4585 O   0  0  0  0  0  0  0  0  0  0  0  0
    1.4225    1.1620   -1.2882 C   0  0  0  0  0  0  0  0  0  0  0  0
    0.2929    2.1087   -0.9140 C   0  0  0  0  0  0  0  0  0  0  0  0
   -1.0057    1.3862   -0.6462 C   0  0  0  0  0  0  0  0  0  0  0  0
   -1.6588    0.6994   -1.6789 C   0  0  0  0  0  0  0  0  0  0  0  0
   -2.8667    0.0372   -1.4408 C   0  0  0  0  0  0  0  0  0  0  0  0
   -3.4396    0.0440   -0.1604 C   0  0  0  0  0  0  0  0  0  0  0  0
   -4.7691   -0.5687    0.0456 C   0  0  0  0  0  0  0  0  0  0  0  0
   -5.6465   -0.1688    0.7857 O   0  0  0  0  0  0  0  0  0  0  0  0
   -4.9343   -1.6648   -0.7170 O   0  0  0  0  0  0  0  0  0  0  0  0
   -2.7804    0.7072    0.8795 C   0  0  0  0  0  0  0  0  0  0  0  0
   -3.2774    0.7118    2.2647 C   0  0  0  0  0  0  0  0  0  0  0  0
   -3.3312    1.6805    2.9971 O   0  0  0  0  0  0  0  0  0  0  0  0
   -3.5467   -0.5345    2.6868 O   0  0  0  0  0  0  0  0  0  0  0  0
   -1.5768    1.3886    0.6341 C   0  0  0  0  0  0  0  0  0  0  0  0
    1.9848    0.5312   -0.1971 N   0  0  0  0  0  0  0  0  0  0  0  0
    3.0140   -0.3880   -0.1686 C   0  0  0  0  0  0  0  0  0  0  0  0
    3.7156   -0.8502   -1.2177 C   0  0  0  0  0  0  0  0  0  0  0  0
    4.7791   -1.8233   -1.0512 C   0  0  0  0  0  0  0  0  0  0  0  0
    5.6925   -2.4033   -2.5683 Br  0  0  0  0  0  0  0  0  0  0  0  0
    5.0744   -2.2758    0.1766 C   0  0  0  0  0  0  0  0  0  0  0  0
    4.3822   -1.8277    1.2741 N   0  0  0  0  0  0  0  0  0  0  0  0
    3.3635   -0.9094    1.2066 C   0  0  0  0  0  0  0  0  0  0  0  0
    2.7541   -0.5162    2.1987 O   0  0  0  0  0  0  0  0  0  0  0  0
  1  2  2  0
  2  3  1  0
  3  4  1  0
  4  5  2  0
  5  6  1  0
  6  7  2  0
  7  8  1  0
  8  9  2  0
  8 10  1  0
  7 11  1  0
 11 12  1  0
 12 13  2  0
 12 14  1  0
 11 15  2  0
  2 16  1  0
 16 17  1  0
 17 18  2  0
 18 19  1  0
 19 20  1  0
 19 21  2  0
 21 22  1  0
 22 23  1  0
 23 24  2  0
 15  4  1  0
 23 17  1  0
M  END
>  <energy>  (33) 
16.76

>  <full_id>  (33) 
MOL00000971-000312-03_1

>  <mol_id>  (33) 
MOL00000971-000312-03

>  <act_mol>  (33) 
0

>  <act_conf>  (33) 
0

$$$$
MOL00000555-001039-02
     RDKit          3D

 35 39  0  0  0  0  0  0  0  0999 V2000
    0.0192    5.8932    1.8788 C   0  0  0  0  0  0  0  0  0  0  0  0
   -0.8864    4.8196    2.1001 O   0  0  0  0  0  0  0  0  0  0  0  0
   -0.3024    3.5796    1.9508 C   0  0  0  0  0  0  0  0  0  0  0  0
    0.9735    3.4855    1.5504 N   0  0  0  0  0  0  0  0  0  0  0  0
    1.4657    2.2471    1.4076 C   0  0  0  0  0  0  0  0  0  0  0  0
    2.7968    2.1659    0.9920 N   0  0  0  0  0  0  0  0  0  0  0  0
    3.4798    1.2635    0.1549 C   0  0  0  0  0  0  0  0  0  0  0  0
    2.8632    0.2499   -0.5739 C   0  0  0  0  0  0  0  0  0  0  0  0
    3.6218   -0.6381   -1.3550 C   0  0  0  0  0  0  0  0  0  0  0  0
    5.0238   -0.5724   -1.4265 C   0  0  0  0  0  0  0  0  0  0  0  0
    5.7334   -1.4718   -2.2373 N   0  0  0  0  0  0  0  0  0  0  0  0
    5.4288   -2.9063   -2.0077 C   0  0  0  0  0  0  0  0  0  0  0  0
    6.0592   -3.7938   -3.1075 C   0  0  0  0  0  0  0  0  0  0  0  0
    7.5079   -3.5798   -3.2928 N   0  0  0  0  0  0  0  0  0  0  0  0
    7.7261   -2.1476   -3.5781 C   0  0  0  0  0  0  0  0  0  0  0  0
    7.1698   -1.2119   -2.4807 C   0  0  0  0  0  0  0  0  0  0  0  0
    5.6327    0.4571   -0.7015 C   0  0  0  0  0  0  0  0  0  0  0  0
    4.8757    1.3425    0.0709 C   0  0  0  0  0  0  0  0  0  0  0  0
    5.5197    2.3081    0.7475 F   0  0  0  0  0  0  0  0  0  0  0  0
    0.7104    1.1306    1.6993 C   0  0  0  0  0  0  0  0  0  0  0  0
   -0.5960    1.3294    2.0882 C   0  0  0  0  0  0  0  0  0  0  0  0
   -1.4567    0.2875    2.4132 N   0  0  0  0  0  0  0  0  0  0  0  0
   -1.5613   -0.8617    1.5103 C   0  0  1  0  0  0  0  0  0  0  0  0
   -2.3811   -1.9608    2.2047 C   0  0  0  0  0  0  0  0  0  0  0  0
   -3.8745   -1.6335    2.2934 C   0  0  0  0  0  0  0  0  0  0  0  0
   -4.4900   -1.3197    0.9211 C   0  0  2  0  0  0  0  0  0  0  0  0
   -3.6847   -0.1852    0.2474 C   0  0  0  0  0  0  0  0  0  0  0  0
   -2.1844   -0.4790    0.1602 C   0  0  0  0  0  0  0  0  0  0  0  0
   -5.9595   -0.9214    1.0437 C   0  0  0  0  0  0  0  0  0  0  0  0
   -6.5356   -1.1795   -0.2417 O   0  0  0  0  0  0  0  0  0  0  0  0
   -5.8878   -2.3410   -0.7941 C   0  0  0  0  0  0  0  0  0  0  0  0
   -5.5967   -2.0760   -2.2708 C   0  0  0  0  0  0  0  0  0  0  0  0
   -6.8473   -3.5273   -0.6658 C   0  0  0  0  0  0  0  0  0  0  0  0
   -4.6077   -2.5617    0.0282 C   0  0  0  0  0  0  0  0  0  0  0  0
   -1.1152    2.5526    2.2179 N   0  0  0  0  0  0  0  0  0  0  0  0
  1  2  1  0
  2  3  1  0
  3  4  2  0
  4  5  1  0
  5  6  1  0
  6  7  1  0
  7  8  2  0
  8  9  1  0
  9 10  2  0
 10 11  1  0
 11 12  1  0
 12 13  1  0
 13 14  1  0
 14 15  1  0
 15 16  1  0
 10 17  1  0
 17 18  2  0
 18 19  1  0
  5 20  2  0
 20 21  1  0
 21 22  1  0
 23 22  1  1
 23 24  1  0
 24 25  1  0
 26 25  1  1
 26 27  1  0
 27 28  1  0
 26 29  1  0
 29 30  1  0
 30 31  1  0
 31 32  1  0
 31 33  1  0
 31 34  1  0
 21 35  2  0
 35  3  1  0
 18  7  1  0
 28 23  1  0
 16 11  1  0
 34 26  1  0
M  END
>  <energy>  (34) 
25.61

>  <full_id>  (34) 
MOL00000555-001039-02_1

>  <mol_id>  (34) 
MOL00000555-001039-02

>  <act_mol>  (34) 
0

>  <act_conf>  (34) 
0

$$$$
MOL00000957-002404-03
     RDKit          3D

 22 22  0  0  0  0  0  0  0  0999 V2000
   -2.9698    0.3671    2.5828 C   0  0  0  0  0  0  0  0  0  0  0  0
   -3.2862   -1.0235    1.9989 C   0  0  0  0  0  0  0  0  0  0  0  0
   -4.8010   -1.0740    1.6981 C   0  0  0  0  0  0  0  0  0  0  0  0
   -2.9817   -2.0931    3.0648 C   0  0  0  0  0  0  0  0  0  0  0  0
   -2.4787   -1.2702    0.6834 C   0  0  2  0  0  0  0  0  0  0  0  0
   -2.8064   -2.5547    0.1338 O   0  0  0  0  0  0  0  0  0  0  0  0
   -0.9479   -1.2023    0.8408 C   0  0  0  0  0  0  0  0  0  0  0  0
   -0.2187   -1.3987   -0.5029 C   0  0  1  0  0  0  0  0  0  0  0  0
    0.9083   -0.4809   -0.6360 N   0  0  0  0  0  0  0  0  0  0  0  0
    0.7494    0.8560   -0.9137 C   0  0  0  0  0  0  0  0  0  0  0  0
   -0.3702    1.3637   -0.9566 O   0  0  0  0  0  0  0  0  0  0  0  0
    1.9732    1.6138   -1.1389 C   0  0  0  0  0  0  0  0  0  0  0  0
    2.0708    2.9728   -1.3728 C   0  0  0  0  0  0  0  0  0  0  0  0
    3.4161    3.3997   -1.5607 C   0  0  0  0  0  0  0  0  0  0  0  0
    4.3208    2.3583   -1.4745 C   0  0  0  0  0  0  0  0  0  0  0  0
    5.7640    2.4506   -1.6220 C   0  0  0  0  0  0  0  0  0  0  0  0
    6.4780    1.2914   -1.4965 N   0  0  0  0  0  0  0  0  0  0  0  0
    6.3645    3.4979   -1.8513 O   0  0  0  0  0  0  0  0  0  0  0  0
    3.5201    0.8764   -1.1637 S   0  0  0  0  0  0  0  0  0  0  0  0
    0.3586   -2.8227   -0.6334 C   0  0  0  0  0  0  0  0  0  0  0  0
   -0.5491   -3.8376   -0.6624 N   0  0  0  0  0  0  0  0  0  0  0  0
    1.5641   -3.0528   -0.7214 O   0  0  0  0  0  0  0  0  0  0  0  0
  2  1  1  0
  2  3  1  0
  2  4  1  0
  2  5  1  0
  5  6  1  1
  5  7  1  0
  8  7  1  1
  8  9  1  0
  9 10  1  0
 10 11  2  0
 10 12  1  0
 12 13  2  0
 13 14  1  0
 14 15  2  0
 15 16  1  0
 16 17  1  0
 16 18  2  0
 15 19  1  0
  8 20  1  0
 20 21  1  0
 20 22  2  0
 19 12  1  0
M  END
>  <energy>  (35) 
-27.59

>  <full_id>  (35) 
MOL00000957-002404-03_1

>  <mol_id>  (35) 
MOL00000957-002404-03

>  <act_mol>  (35) 
0

>  <act_conf>  (35) 
0

$$$$
MOL00000923-001055-04
     RDKit          3D

 24 25  0  0  0  0  0  0  0  0999 V2000
    4.9475    2.4308    1.4724 C   0  0  0  0  0  0  0  0  0  0  0  0
    4.3318    1.2731    0.7341 C   0  0  0  0  0  0  0  0  0  0  0  0
    2.9441    1.0620    0.8364 C   0  0  0  0  0  0  0  0  0  0  0  0
    2.3115    0.0097    0.1627 C   0  0  0  0  0  0  0  0  0  0  0  0
    0.9227   -0.1197    0.3299 N   0  0  0  0  0  0  0  0  0  0  0  0
    0.0880   -1.0655   -0.2239 C   0  0  0  0  0  0  0  0  0  0  0  0
    0.3500   -1.9997   -0.9686 O   0  0  0  0  0  0  0  0  0  0  0  0
   -1.3812   -0.8536    0.2030 C   0  0  0  0  0  0  0  0  0  0  0  0
   -1.6790    0.0628    0.9578 O   0  0  0  0  0  0  0  0  0  0  0  0
   -2.2610   -1.7545   -0.3456 N   0  0  0  0  0  0  0  0  0  0  0  0
   -3.6698   -1.8311    0.0047 C   0  0  0  0  0  0  0  0  0  0  0  0
   -4.5095   -0.6063   -0.4221 C   0  0  1  0  0  0  0  0  0  0  0  0
   -4.3212    0.4811    0.4897 O   0  0  0  0  0  0  0  0  0  0  0  0
   -4.2188   -0.1143   -1.8442 C   0  0  0  0  0  0  0  0  0  0  0  0
   -5.4659    0.6721   -2.2581 C   0  0  0  0  0  0  0  0  0  0  0  0
   -6.5824    0.2534   -1.3007 C   0  0  0  0  0  0  0  0  0  0  0  0
   -6.0153   -0.9275   -0.5062 C   0  0  2  0  0  0  0  0  0  0  0  0
   -6.7150   -1.1092    0.8347 C   0  0  0  0  0  0  0  0  0  0  0  0
    3.0778   -0.8409   -0.6280 C   0  0  0  0  0  0  0  0  0  0  0  0
    4.4559   -0.6396   -0.7463 C   0  0  0  0  0  0  0  0  0  0  0  0
    5.0976    0.4155   -0.0779 C   0  0  0  0  0  0  0  0  0  0  0  0
    6.5929    0.5659   -0.2373 C   0  0  0  0  0  0  0  0  0  0  0  0
    7.3665   -0.2715    0.7773 C   0  0  0  0  0  0  0  0  0  0  0  0
    8.7631   -0.0721    0.5865 O   0  0  0  0  0  0  0  0  0  0  0  0
  1  2  1  0
  2  3  2  0
  3  4  1  0
  4  5  1  0
  5  6  1  0
  6  7  2  0
  6  8  1  0
  8  9  2  0
  8 10  1  0
 10 11  1  0
 11 12  1  0
 12 13  1  1
 12 14  1  0
 14 15  1  0
 15 16  1  0
 16 17  1  0
 17 18  1  1
  4 19  2  0
 19 20  1  0
 20 21  2  0
 21 22  1  0
 22 23  1  0
 23 24  1  0
 21  2  1  0
 17 12  1  0
M  END
>  <energy>  (36) 
81.00

>  <full_id>  (36) 
MOL00000923-001055-04_1

>  <mol_id>  (36) 
MOL00000923-001055-04

>  <act_mol>  (36) 
0

>  <act_conf>  (36) 
0

$$$$
MOL00001040-000299-03
     RDKit          3D

 25 26  0  0  0  0  0  0  0  0999 V2000
   -1.3984   -3.2831   -3.0349 C   0  0  0  0  0  0  0  0  0  0  0  0
   -1.8355   -2.0224   -2.4615 N   0  0  0  0  0  0  0  0  0  0  0  0
   -2.2119   -0.9919   -3.4202 C   0  0  0  0  0  0  0  0  0  0  0  0
   -1.3911   -1.7269   -1.1684 C   0  0  0  0  0  0  0  0  0  0  0  0
   -0.6235   -2.4522   -0.5355 O   0  0  0  0  0  0  0  0  0  0  0  0
   -1.8710   -0.4889   -0.5046 C   0  0  0  0  0  0  0  0  0  0  0  0
   -3.2572   -0.2836   -0.4069 C   0  0  0  0  0  0  0  0  0  0  0  0
   -3.7626    0.8611    0.2063 C   0  0  0  0  0  0  0  0  0  0  0  0
   -5.1246    0.9407    0.2245 O   0  0  0  0  0  0  0  0  0  0  0  0
   -5.7144    2.0689    0.8481 C   0  0  0  0  0  0  0  0  0  0  0  0
   -7.0587    1.9458    0.7818 F   0  0  0  0  0  0  0  0  0  0  0  0
   -5.3630    2.1495    2.1487 F   0  0  0  0  0  0  0  0  0  0  0  0
   -5.3662    3.2093    0.2142 F   0  0  0  0  0  0  0  0  0  0  0  0
   -2.8680    1.7964    0.7192 C   0  0  0  0  0  0  0  0  0  0  0  0
   -1.4831    1.5741    0.6467 C   0  0  0  0  0  0  0  0  0  0  0  0
   -0.9519    0.4085    0.0796 C   0  0  0  0  0  0  0  0  0  0  0  0
    0.4347    0.1925   -0.0452 N   0  0  0  0  0  0  0  0  0  0  0  0
    1.3462    0.8314    0.9102 C   0  0  0  0  0  0  0  0  0  0  0  0
    2.7826    0.3300    0.7009 C   0  0  1  0  0  0  0  0  0  0  0  0
    3.3047    0.6242   -0.7108 C   0  0  0  0  0  0  0  0  0  0  0  0
    4.7623    0.1925   -0.8261 C   0  0  0  0  0  0  0  0  0  0  0  0
    5.5956    0.9475    0.1939 C   0  0  0  0  0  0  0  0  0  0  0  0
    5.0386    0.8803    1.5264 N   0  0  0  0  0  0  0  0  0  0  0  0
    3.6891    0.9353    1.7653 C   0  0  0  0  0  0  0  0  0  0  0  0
    3.2820    1.3658    2.8409 O   0  0  0  0  0  0  0  0  0  0  0  0
  1  2  1  0
  2  3  1  0
  2  4  1  0
  4  5  2  0
  4  6  1  0
  6  7  2  0
  7  8  1  0
  8  9  1  0
  9 10  1  0
 10 11  1  0
 10 12  1  0
 10 13  1  0
  8 14  2  0
 14 15  1  0
 15 16  2  0
 16 17  1  0
 17 18  1  0
 19 18  1  6
 19 20  1  0
 20 21  1  0
 21 22  1  0
 22 23  1  0
 23 24  1  0
 24 25  2  0
 16  6  1  0
 24 19  1  0
M  END
>  <energy>  (37) 
17.42

>  <full_id>  (37) 
MOL00001040-000299-03_1

>  <mol_id>  (37) 
MOL00001040-000299-03

>  <act_mol>  (37) 
0

>  <act_conf>  (37) 
0

$$$$
MOL00001035-002236-03
     RDKit          3D

 28 31  0  0  0  0  0  0  0  0999 V2000
   -8.8453    2.2526    1.3620 C   0  0  0  0  0  0  0  0  0  0  0  0
   -7.9738    1.3585    0.6041 N   0  0  0  0  0  0  0  0  0  0  0  0
   -7.9852    0.0011    1.1888 C   0  0  0  0  0  0  0  0  0  0  0  0
   -7.0539   -0.9661    0.4339 C   0  0  0  0  0  0  0  0  0  0  0  0
   -5.6910   -0.4417    0.3054 N   0  0  0  0  0  0  0  0  0  0  0  0
   -4.6933   -1.3746    0.0017 C   0  0  0  0  0  0  0  0  0  0  0  0
   -4.9133   -2.5717   -0.1639 O   0  0  0  0  0  0  0  0  0  0  0  0
   -3.2922   -0.9213   -0.0844 C   0  0  0  0  0  0  0  0  0  0  0  0
   -2.7153   -0.0876    0.8708 C   0  0  0  0  0  0  0  0  0  0  0  0
   -1.3788    0.2824    0.7239 C   0  0  0  0  0  0  0  0  0  0  0  0
   -0.6465   -0.2122   -0.3538 C   0  0  0  0  0  0  0  0  0  0  0  0
    0.6777    0.1516   -0.5739 N   0  0  0  0  0  0  0  0  0  0  0  0
    1.5915   -0.1806    0.5283 C   0  0  0  0  0  0  0  0  0  0  0  0
    3.0603   -0.1159    0.2026 C   0  0  0  0  0  0  0  0  0  0  0  0
    3.6309   -0.8990   -0.7272 N   0  0  0  0  0  0  0  0  0  0  0  0
    4.9064   -0.4779   -0.6823 N   0  0  0  0  0  0  0  0  0  0  0  0
    5.0759    0.5182    0.2407 C   0  0  0  0  0  0  0  0  0  0  0  0
    6.3792    1.2023    0.4703 C   0  0  0  0  0  0  0  0  0  0  0  0
    7.5788    0.2438    0.5248 C   0  0  0  0  0  0  0  0  0  0  0  0
    7.7951   -0.4622   -0.7544 N   0  0  0  0  0  0  0  0  0  0  0  0
    9.0362   -1.2870   -0.6731 C   0  0  0  0  0  0  0  0  0  0  0  0
    9.3634   -0.8094   -2.1009 C   0  0  0  0  0  0  0  0  0  0  0  0
    8.4942    0.4110   -1.7408 C   0  0  0  0  0  0  0  0  0  0  0  0
    3.9221    0.7601    0.8255 N   0  0  0  0  0  0  0  0  0  0  0  0
   -1.1875   -1.0393   -1.2688 N   0  0  0  0  0  0  0  0  0  0  0  0
   -2.4896   -1.3902   -1.1108 C   0  0  0  0  0  0  0  0  0  0  0  0
   -5.6380    0.9396   -0.1961 C   0  0  0  0  0  0  0  0  0  0  0  0
   -6.5896    1.8741    0.5751 C   0  0  0  0  0  0  0  0  0  0  0  0
  1  2  1  0
  2  3  1  0
  3  4  1  0
  4  5  1  0
  5  6  1  0
  6  7  2  0
  6  8  1  0
  8  9  2  0
  9 10  1  0
 10 11  2  0
 11 12  1  0
 12 13  1  0
 13 14  1  0
 14 15  2  0
 15 16  1  0
 16 17  1  0
 17 18  1  0
 18 19  1  0
 19 20  1  0
 20 21  1  0
 21 22  1  0
 22 23  1  0
 17 24  2  0
 11 25  1  0
 25 26  2  0
  5 27  1  0
 27 28  1  0
 28  2  1  0
 26  8  1  0
 24 14  1  0
 23 20  1  0
M  END
>  <energy>  (38) 
88.90

>  <full_id>  (38) 
MOL00001035-002236-03_1

>  <mol_id>  (38) 
MOL00001035-002236-03

>  <act_mol>  (38) 
0

>  <act_conf>  (38) 
0

$$$$
MOL00001244-000403-02
     RDKit          3D

 22 24  0  0  0  0  0  0  0  0999 V2000
    2.9360   -1.7753    0.3786 C   0  0  0  0  0  0  0  0  0  0  0  0
    2.4934   -0.8463   -0.6336 N   0  0  0  0  0  0  0  0  0  0  0  0
    1.8683   -1.1883   -1.8005 C   0  0  0  0  0  0  0  0  0  0  0  0
    1.6302   -0.0002   -2.4439 C   0  0  0  0  0  0  0  0  0  0  0  0
    2.0799    1.0545   -1.6965 N   0  0  0  0  0  0  0  0  0  0  0  0
    2.6160    0.5241   -0.6099 C   0  0  0  0  0  0  0  0  0  0  0  0
    3.2312    1.2936    0.5125 C   0  0  0  0  0  0  0  0  0  0  0  0
    2.1708    1.6651    1.4211 N   0  0  0  0  0  0  0  0  0  0  0  0
    2.0357    1.0900    2.6615 C   0  0  0  0  0  0  0  0  0  0  0  0
    2.9247    0.4158    3.1775 O   0  0  0  0  0  0  0  0  0  0  0  0
    0.7484    1.4189    3.4022 C   0  0  0  0  0  0  0  0  0  0  0  0
   -0.7098    1.4673    2.3127 S   0  0  0  0  0  0  0  0  0  0  0  0
   -0.8161   -0.1843    1.8162 C   0  0  0  0  0  0  0  0  0  0  0  0
   -0.1049   -1.1891    2.2698 N   0  0  0  0  0  0  0  0  0  0  0  0
   -0.5048   -2.2893    1.5544 N   0  0  0  0  0  0  0  0  0  0  0  0
   -1.4594   -1.9735    0.6899 N   0  0  0  0  0  0  0  0  0  0  0  0
   -1.6645   -0.6494    0.8471 N   0  0  0  0  0  0  0  0  0  0  0  0
   -2.6299    0.0701    0.0406 C   0  0  0  0  0  0  0  0  0  0  0  0
   -2.0340    0.5757   -1.2718 C   0  0  0  0  0  0  0  0  0  0  0  0
   -2.1736   -0.6044   -2.2248 C   0  0  0  0  0  0  0  0  0  0  0  0
   -3.4587   -1.3127   -1.8051 C   0  0  0  0  0  0  0  0  0  0  0  0
   -3.8309   -0.7640   -0.4267 C   0  0  0  0  0  0  0  0  0  0  0  0
  1  2  1  0
  2  3  1  0
  3  4  2  0
  4  5  1  0
  5  6  2  0
  6  7  1  0
  7  8  1  0
  8  9  1  0
  9 10  2  0
  9 11  1  0
 11 12  1  0
 12 13  1  0
 13 14  2  0
 14 15  1  0
 15 16  2  0
 16 17  1  0
 18 17  1  0
 18 19  1  0
 19 20  1  0
 20 21  1  0
 21 22  1  0
  6  2  1  0
 17 13  1  0
 22 18  1  0
M  END
>  <energy>  (39) 
-3.93

>  <full_id>  (39) 
MOL00001244-000403-02_1

>  <mol_id>  (39) 
MOL00001244-000403-02

>  <act_mol>  (39) 
0

>  <act_conf>  (39) 
0

$$$$
MOL00001270-000056-02
     RDKit          3D

 21 22  0  0  0  0  0  0  0  0999 V2000
    6.8025    0.6401   -0.5005 N   0  0  0  0  0  0  0  0  0  0  0  0
    6.0583   -0.1496    0.3328 C   0  0  0  0  0  0  0  0  0  0  0  0
    6.5691   -0.8566    1.1916 O   0  0  0  0  0  0  0  0  0  0  0  0
    4.5795   -0.0851    0.1141 C   0  0  0  0  0  0  0  0  0  0  0  0
    3.7296   -0.8483    0.8989 C   0  0  0  0  0  0  0  0  0  0  0  0
    2.3625   -0.7553    0.6582 C   0  0  0  0  0  0  0  0  0  0  0  0
    1.8948    0.0989   -0.3511 C   0  0  0  0  0  0  0  0  0  0  0  0
    0.4413    0.1997   -0.6499 C   0  0  0  0  0  0  0  0  0  0  0  0
    0.0572    0.4951   -1.7772 O   0  0  0  0  0  0  0  0  0  0  0  0
   -0.4229   -0.0306    0.3952 N   0  0  0  0  0  0  0  0  0  0  0  0
   -1.8717    0.1308    0.2541 C   0  0  1  0  0  0  0  0  0  0  0  0
   -2.4954   -1.1077   -0.3965 C   0  0  0  0  0  0  0  0  0  0  0  0
   -3.8639   -0.8411   -1.0236 C   0  0  0  0  0  0  0  0  0  0  0  0
   -4.9718   -0.5116   -0.0246 C   0  0  0  0  0  0  0  0  0  0  0  0
   -4.7239    0.7676    0.7638 C   0  0  0  0  0  0  0  0  0  0  0  0
   -3.7573    0.5872    1.8228 N   0  0  0  0  0  0  0  0  0  0  0  0
   -2.4230    0.3542    1.6724 C   0  0  0  0  0  0  0  0  0  0  0  0
   -1.6951    0.3272    2.6683 O   0  0  0  0  0  0  0  0  0  0  0  0
    2.8314    0.8190   -1.1137 C   0  0  0  0  0  0  0  0  0  0  0  0
    2.4537    1.7217   -2.1212 N   0  0  0  0  0  0  0  0  0  0  0  0
    4.1571    0.7450   -0.8780 N   0  0  0  0  0  0  0  0  0  0  0  0
  1  2  1  0
  2  3  2  0
  2  4  1  0
  4  5  2  0
  5  6  1  0
  6  7  2  0
  7  8  1  0
  8  9  2  0
  8 10  1  0
 11 10  1  1
 11 12  1  0
 12 13  1  0
 13 14  1  0
 14 15  1  0
 15 16  1  0
 16 17  1  0
 17 18  2  0
  7 19  1  0
 19 20  1  0
 19 21  2  0
 21  4  1  0
 17 11  1  0
M  END
>  <energy>  (40) 
13.56

>  <full_id>  (40) 
MOL00001270-000056-02_1

>  <mol_id>  (40) 
MOL00001270-000056-02

>  <act_mol>  (40) 
0

>  <act_conf>  (40) 
0

$$$$
MOL00001333-000690-03
     RDKit          3D

 23 25  0  0  0  0  0  0  0  0999 V2000
    5.4277    1.4124    2.0996 C   0  0  0  0  0  0  0  0  0  0  0  0
    6.1231    0.3025    1.5442 O   0  0  0  0  0  0  0  0  0  0  0  0
    5.3342   -0.8924    1.5242 C   0  0  0  0  0  0  0  0  0  0  0  0
    4.3889   -0.8540    0.3592 C   0  0  0  0  0  0  0  0  0  0  0  0
    3.1013   -0.5849    0.4516 N   0  0  0  0  0  0  0  0  0  0  0  0
    2.5079   -0.6234   -0.8207 C   0  0  0  0  0  0  0  0  0  0  0  0
    1.0674   -0.3443   -0.9719 C   0  0  0  0  0  0  0  0  0  0  0  0
    0.5039   -0.3719   -2.0593 O   0  0  0  0  0  0  0  0  0  0  0  0
    0.4883   -0.0652    0.2504 N   0  0  0  0  0  0  0  0  0  0  0  0
   -0.8496    0.2529    0.5369 C   0  0  0  0  0  0  0  0  0  0  0  0
   -1.1749    0.4836    1.8779 C   0  0  0  0  0  0  0  0  0  0  0  0
   -2.4831    0.8004    2.2449 C   0  0  0  0  0  0  0  0  0  0  0  0
   -3.4778    0.8746    1.2731 C   0  0  0  0  0  0  0  0  0  0  0  0
   -3.1756    0.6833   -0.0790 C   0  0  0  0  0  0  0  0  0  0  0  0
   -1.8514    0.3598   -0.4327 C   0  0  0  0  0  0  0  0  0  0  0  0
   -4.2166    0.8709   -1.1540 C   0  0  0  0  0  0  0  0  0  0  0  0
   -5.3158   -0.0928   -1.0781 N   0  0  0  0  0  0  0  0  0  0  0  0
   -6.2496    0.2306    0.0071 C   0  0  0  0  0  0  0  0  0  0  0  0
   -5.6549    0.1174    1.4155 C   0  0  0  0  0  0  0  0  0  0  0  0
   -4.7402    1.1839    1.7017 O   0  0  0  0  0  0  0  0  0  0  0  0
    3.3809   -0.9358   -1.8520 C   0  0  0  0  0  0  0  0  0  0  0  0
    3.1156   -1.0662   -3.3123 C   0  0  0  0  0  0  0  0  0  0  0  0
    4.9582   -1.1821   -1.2272 S   0  0  0  0  0  0  0  0  0  0  0  0
  1  2  1  0
  2  3  1  0
  3  4  1  0
  4  5  2  0
  5  6  1  0
  6  7  1  0
  7  8  2  0
  7  9  1  0
  9 10  1  0
 10 11  2  0
 11 12  1  0
 12 13  2  0
 13 14  1  0
 14 15  2  0
 14 16  1  0
 16 17  1  0
 17 18  1  0
 18 19  1  0
 19 20  1  0
  6 21  2  0
 21 22  1  0
 21 23  1  0
 23  4  1  0
 15 10  1  0
 20 13  1  0
M  END
>  <energy>  (41) 
73.30

>  <full_id>  (41) 
MOL00001333-000690-03_1

>  <mol_id>  (41) 
MOL00001333-000690-03

>  <act_mol>  (41) 
0

>  <act_conf>  (41) 
0

$$$$
MOL00001340-002170-03
     RDKit          3D

 22 23  0  0  0  0  0  0  0  0999 V2000
    1.5428   -0.1082   -1.3043 O   0  0  0  0  0  0  0  0  0  0  0  0
    1.2401   -1.1644   -0.7606 C   0  0  0  0  0  0  0  0  0  0  0  0
    0.1197   -2.0512   -1.2857 C   0  0  0  0  0  0  0  0  0  0  0  0
   -0.6901   -1.4164   -2.4194 C   0  0  0  0  0  0  0  0  0  0  0  0
   -1.5721   -0.2458   -1.9730 C   0  0  0  0  0  0  0  0  0  0  0  0
   -2.7780   -0.6724   -1.1485 C   0  0  0  0  0  0  0  0  0  0  0  0
   -2.9945   -1.8495   -0.8629 O   0  0  0  0  0  0  0  0  0  0  0  0
   -3.6171    0.3415   -0.7417 N   0  0  0  0  0  0  0  0  0  0  0  0
   -3.4680    1.7647   -1.0056 C   0  0  0  0  0  0  0  0  0  0  0  0
   -4.5152    2.4247   -0.1189 C   0  0  0  0  0  0  0  0  0  0  0  0
   -5.6093    1.3678   -0.0360 C   0  0  0  0  0  0  0  0  0  0  0  0
   -4.8211    0.0675    0.0221 C   0  0  0  0  0  0  0  0  0  0  0  0
    1.8341   -1.7205    0.3482 N   0  0  0  0  0  0  0  0  0  0  0  0
    2.8645   -1.1662    1.0493 C   0  0  0  0  0  0  0  0  0  0  0  0
    3.3779   -1.7927    2.1149 N   0  0  0  0  0  0  0  0  0  0  0  0
    4.3387   -0.9298    2.4925 N   0  0  0  0  0  0  0  0  0  0  0  0
    4.3689    0.1529    1.6718 C   0  0  0  0  0  0  0  0  0  0  0  0
    5.2267    1.1550    1.8252 O   0  0  0  0  0  0  0  0  0  0  0  0
    5.0753    2.1973    0.8488 C   0  0  0  0  0  0  0  0  0  0  0  0
    6.1623    3.2378    1.0973 C   0  0  0  0  0  0  0  0  0  0  0  0
    5.9824    3.8601    2.3691 O   0  0  0  0  0  0  0  0  0  0  0  0
    3.4481    0.0297    0.7507 N   0  0  0  0  0  0  0  0  0  0  0  0
  1  2  2  0
  2  3  1  0
  3  4  1  0
  4  5  1  0
  5  6  1  0
  6  7  2  0
  6  8  1  0
  8  9  1  0
  9 10  1  0
 10 11  1  0
 11 12  1  0
  2 13  1  0
 13 14  1  0
 14 15  2  0
 15 16  1  0
 16 17  1  0
 17 18  1  0
 18 19  1  0
 19 20  1  0
 20 21  1  0
 17 22  2  0
 12  8  1  0
 22 14  1  0
M  END
>  <energy>  (42) 
-69.23

>  <full_id>  (42) 
MOL00001340-002170-03_1

>  <mol_id>  (42) 
MOL00001340-002170-03

>  <act_mol>  (42) 
0

>  <act_conf>  (42) 
0

$$$$
MOL00001284-000567-04
     RDKit          3D

 25 26  0  0  0  0  0  0  0  0999 V2000
    3.8780    2.5354    1.4702 C   0  0  0  0  0  0  0  0  0  0  0  0
    3.3656    3.0952    0.1518 C   0  0  0  0  0  0  0  0  0  0  0  0
    3.2829    2.0512   -0.9693 C   0  0  0  0  0  0  0  0  0  0  0  0
    2.2667    0.9179   -0.7266 C   0  0  2  0  0  0  0  0  0  0  0  0
    2.4264   -0.1862   -1.8023 C   0  0  0  0  0  0  0  0  0  0  0  0
    3.2548   -1.3746   -1.3050 C   0  0  0  0  0  0  0  0  0  0  0  0
    2.5002   -2.2113   -0.2955 C   0  0  0  0  0  0  0  0  0  0  0  0
    1.4130   -1.9148    0.1876 O   0  0  0  0  0  0  0  0  0  0  0  0
    3.2175   -3.3267    0.0069 O   0  0  0  0  0  0  0  0  0  0  0  0
    2.5957   -4.1843    0.9651 C   0  0  0  0  0  0  0  0  0  0  0  0
    0.8131    1.4158   -0.7272 C   0  0  0  0  0  0  0  0  0  0  0  0
    0.5136    2.5082   -1.1952 O   0  0  0  0  0  0  0  0  0  0  0  0
   -0.0413    0.4760   -0.1772 N   0  0  0  0  0  0  0  0  0  0  0  0
   -1.4057    0.6228   -0.0245 C   0  0  0  0  0  0  0  0  0  0  0  0
   -2.1040    1.7098   -0.3534 N   0  0  0  0  0  0  0  0  0  0  0  0
   -3.3688    1.4105   -0.0346 N   0  0  0  0  0  0  0  0  0  0  0  0
   -3.5322    0.1630    0.4977 C   0  0  0  0  0  0  0  0  0  0  0  0
   -4.6664   -0.5167    0.9522 C   0  0  0  0  0  0  0  0  0  0  0  0
   -6.2070    0.2565    0.8807 Cl  0  0  0  0  0  0  0  0  0  0  0  0
   -4.5007   -1.8212    1.4561 C   0  0  0  0  0  0  0  0  0  0  0  0
   -5.6404   -2.4506    1.8912 O   0  0  0  0  0  0  0  0  0  0  0  0
   -5.5145   -3.7668    2.4118 C   0  0  0  0  0  0  0  0  0  0  0  0
   -3.2240   -2.3936    1.4874 C   0  0  0  0  0  0  0  0  0  0  0  0
   -2.0979   -1.6915    1.0248 C   0  0  0  0  0  0  0  0  0  0  0  0
   -2.2575   -0.3871    0.5204 C   0  0  0  0  0  0  0  0  0  0  0  0
  1  2  1  0
  2  3  1  0
  4  3  1  6
  4  5  1  0
  5  6  1  0
  6  7  1  0
  7  8  2  0
  7  9  1  0
  9 10  1  0
  4 11  1  0
 11 12  2  0
 11 13  1  0
 13 14  1  0
 14 15  2  0
 15 16  1  0
 16 17  1  0
 17 18  2  0
 18 19  1  0
 18 20  1  0
 20 21  1  0
 21 22  1  0
 20 23  2  0
 23 24  1  0
 24 25  2  0
 25 14  1  0
 25 17  1  0
M  END
>  <energy>  (43) 
-6.24

>  <full_id>  (43) 
MOL00001284-000567-04_1

>  <mol_id>  (43) 
MOL00001284-000567-04

>  <act_mol>  (43) 
0

>  <act_conf>  (43) 
0

$$$$
MOL00001232-000319-04
     RDKit          3D

 25 26  0  0  0  0  0  0  0  0999 V2000
    3.3615    0.3714   -3.7154 C   0  0  0  0  0  0  0  0  0  0  0  0
    2.4606    1.3141   -2.9233 C   0  0  0  0  0  0  0  0  0  0  0  0
    2.6769    1.1854   -1.4032 C   0  0  1  0  0  0  0  0  0  0  0  0
    1.8799    2.2544   -0.6357 C   0  0  0  0  0  0  0  0  0  0  0  0
    2.3020   -0.1437   -0.9440 N   0  0  0  0  0  0  0  0  0  0  0  0
    2.9508   -0.7716    0.0973 C   0  0  0  0  0  0  0  0  0  0  0  0
    3.9221   -0.2906    0.6683 O   0  0  0  0  0  0  0  0  0  0  0  0
    2.3840   -2.1282    0.5323 C   0  0  0  0  0  0  0  0  0  0  0  0
    1.2990   -2.6514   -0.3049 N   0  0  0  0  0  0  0  0  0  0  0  0
    1.6992   -3.4749   -1.4359 C   0  0  0  0  0  0  0  0  0  0  0  0
   -0.0507   -2.5039   -0.0246 C   0  0  0  0  0  0  0  0  0  0  0  0
   -0.9170   -3.1068   -0.6553 O   0  0  0  0  0  0  0  0  0  0  0  0
   -0.4345   -1.5800    1.1204 C   0  0  0  0  0  0  0  0  0  0  0  0
   -1.8368   -1.0184    0.8914 C   0  0  1  0  0  0  0  0  0  0  0  0
   -2.4299   -0.2340    2.4250 S   0  0  0  0  0  0  0  0  0  0  0  0
   -3.9222    0.4883    1.7720 C   0  0  0  0  0  0  0  0  0  0  0  0
   -4.9945    0.7192    2.6432 C   0  0  0  0  0  0  0  0  0  0  0  0
   -6.1549    1.3473    2.1845 C   0  0  0  0  0  0  0  0  0  0  0  0
   -6.2362    1.7579    0.8569 C   0  0  0  0  0  0  0  0  0  0  0  0
   -7.6596    2.5456    0.2940 Cl  0  0  0  0  0  0  0  0  0  0  0  0
   -5.1719    1.5432   -0.0201 C   0  0  0  0  0  0  0  0  0  0  0  0
   -4.0178    0.8951    0.4319 C   0  0  0  0  0  0  0  0  0  0  0  0
   -2.9573    0.7274   -0.4749 N   0  0  0  0  0  0  0  0  0  0  0  0
   -1.8213   -0.0099   -0.2584 C   0  0  0  0  0  0  0  0  0  0  0  0
   -0.8749    0.0964   -1.0429 O   0  0  0  0  0  0  0  0  0  0  0  0
  1  2  1  0
  2  3  1  0
  3  4  1  1
  3  5  1  0
  5  6  1  0
  6  7  2  0
  6  8  1  0
  8  9  1  0
  9 10  1  0
  9 11  1  0
 11 12  2  0
 11 13  1  0
 14 13  1  1
 14 15  1  0
 15 16  1  0
 16 17  2  0
 17 18  1  0
 18 19  2  0
 19 20  1  0
 19 21  1  0
 21 22  2  0
 22 23  1  0
 23 24  1  0
 24 25  2  0
 24 14  1  0
 22 16  1  0
M  END
>  <energy>  (44) 
3.61

>  <full_id>  (44) 
MOL00001232-000319-04_1

>  <mol_id>  (44) 
MOL00001232-000319-04

>  <act_mol>  (44) 
0

>  <act_conf>  (44) 
0

$$$$
MOL00001102-000047-04
     RDKit          3D

 25 25  0  0  0  0  0  0  0  0999 V2000
   -2.9370    2.0442   -1.6142 C   0  0  0  0  0  0  0  0  0  0  0  0
   -3.6893    1.2687   -0.5468 C   0  0  0  0  0  0  0  0  0  0  0  0
   -2.8861    0.0684   -0.1316 N   0  0  0  0  0  0  0  0  0  0  0  0
   -3.2713   -1.1445   -0.9354 C   0  0  0  0  0  0  0  0  0  0  0  0
   -2.0967   -2.0988   -1.1762 C   0  0  0  0  0  0  0  0  0  0  0  0
   -0.9630   -1.5717   -2.0713 C   0  0  1  0  0  0  0  0  0  0  0  0
   -1.4233   -1.2959   -3.5024 C   0  0  0  0  0  0  0  0  0  0  0  0
   -0.3263   -0.4046   -1.4831 N   0  0  0  0  0  0  0  0  0  0  0  0
    0.9597   -0.0196   -1.7849 C   0  0  0  0  0  0  0  0  0  0  0  0
    1.6568   -0.6188   -2.5998 O   0  0  0  0  0  0  0  0  0  0  0  0
    1.4320    1.2324   -1.0573 C   0  0  2  0  0  0  0  0  0  0  0  0
    2.7849    1.7320   -1.5796 C   0  0  0  0  0  0  0  0  0  0  0  0
    3.9510    0.9357   -0.9981 C   0  0  0  0  0  0  0  0  0  0  0  0
    3.9348    1.0401    0.5251 C   0  0  2  0  0  0  0  0  0  0  0  0
    5.0794    0.2210    1.1482 C   0  0  0  0  0  0  0  0  0  0  0  0
    5.0535    0.3308    2.4982 F   0  0  0  0  0  0  0  0  0  0  0  0
    6.2833    0.6708    0.7298 F   0  0  0  0  0  0  0  0  0  0  0  0
    4.9935   -1.0895    0.8410 F   0  0  0  0  0  0  0  0  0  0  0  0
    2.6074    0.7024    1.0581 N   0  0  0  0  0  0  0  0  0  0  0  0
    1.4335    1.0371    0.4466 C   0  0  0  0  0  0  0  0  0  0  0  0
    0.4014    1.1048    1.1154 O   0  0  0  0  0  0  0  0  0  0  0  0
   -2.9295   -0.1993    1.5523 S   0  0  0  0  0  6  0  0  0  0  0  0
   -2.1483    1.1847    2.0457 N   0  0  0  0  0  0  0  0  0  0  0  0
   -4.2952   -0.1277    2.0047 O   0  0  0  0  0  0  0  0  0  0  0  0
   -2.0618   -1.2962    1.8919 O   0  0  0  0  0  0  0  0  0  0  0  0
  1  2  1  0
  2  3  1  0
  3  4  1  0
  4  5  1  0
  5  6  1  0
  6  7  1  6
  6  8  1  0
  8  9  1  0
  9 10  2  0
 11  9  1  6
 11 12  1  0
 12 13  1  0
 14 13  1  0
 14 15  1  1
 15 16  1  0
 15 17  1  0
 15 18  1  0
 14 19  1  0
 19 20  1  0
 20 21  2  0
  3 22  1  0
 22 23  1  0
 22 24  2  0
 22 25  2  0
 20 11  1  0
M  END
>  <energy>  (45) 
-193.87

>  <full_id>  (45) 
MOL00001102-000047-04_1

>  <mol_id>  (45) 
MOL00001102-000047-04

>  <act_mol>  (45) 
0

>  <act_conf>  (45) 
0

$$$$
MOL00001100-000351-02
     RDKit          3D

 27 28  0  0  0  0  0  0  0  0999 V2000
    9.6047    0.6444   -0.1420 C   0  0  0  0  0  0  0  0  0  0  0  0
    8.8018    0.2427    0.9610 O   0  0  0  0  0  0  0  0  0  0  0  0
    7.4651    0.0821    0.7247 C   0  0  0  0  0  0  0  0  0  0  0  0
    6.7173   -0.3092    1.8355 C   0  0  0  0  0  0  0  0  0  0  0  0
    5.3374   -0.5089    1.7318 C   0  0  0  0  0  0  0  0  0  0  0  0
    4.6840   -0.3194    0.5107 C   0  0  0  0  0  0  0  0  0  0  0  0
    3.2975   -0.5383    0.4806 N   0  0  0  0  0  0  0  0  0  0  0  0
    2.4423   -0.4135   -0.5932 C   0  0  0  0  0  0  0  0  0  0  0  0
    2.6859   -0.0871   -1.7458 O   0  0  0  0  0  0  0  0  0  0  0  0
    0.9848   -0.7466   -0.2023 C   0  0  0  0  0  0  0  0  0  0  0  0
    0.7152   -1.0287    0.9579 O   0  0  0  0  0  0  0  0  0  0  0  0
    0.0935   -0.6798   -1.2457 N   0  0  0  0  0  0  0  0  0  0  0  0
   -1.3540   -0.7737   -1.0593 C   0  0  2  0  0  0  0  0  0  0  0  0
   -2.0005   -1.2408   -2.3755 C   0  0  0  0  0  0  0  0  0  0  0  0
   -1.7672   -0.2880   -3.4133 O   0  0  0  0  0  0  0  0  0  0  0  0
   -1.9089    0.5775   -0.5581 C   0  0  0  0  0  0  0  0  0  0  0  0
   -3.3593    0.5232   -0.1232 C   0  0  0  0  0  0  0  0  0  0  0  0
   -4.3453    0.9396   -1.0343 C   0  0  0  0  0  0  0  0  0  0  0  0
   -5.6991    0.8914   -0.7020 C   0  0  0  0  0  0  0  0  0  0  0  0
   -6.1020    0.4193    0.5497 C   0  0  0  0  0  0  0  0  0  0  0  0
   -7.5609    0.3902    0.9248 C   0  0  0  0  0  0  0  0  0  0  0  0
   -7.9719    1.6430    1.5475 N   0  0  0  0  0  0  0  0  0  0  0  0
   -5.1219    0.0173    1.4686 C   0  0  0  0  0  0  0  0  0  0  0  0
   -3.7528    0.0651    1.1507 C   0  0  0  0  0  0  0  0  0  0  0  0
   -2.7541   -0.3733    2.1890 C   0  0  0  0  0  0  0  0  0  0  0  0
    5.4325    0.0716   -0.5999 C   0  0  0  0  0  0  0  0  0  0  0  0
    6.8165    0.2717   -0.4942 C   0  0  0  0  0  0  0  0  0  0  0  0
  1  2  1  0
  2  3  1  0
  3  4  2  0
  4  5  1  0
  5  6  2  0
  6  7  1  0
  7  8  1  0
  8  9  2  0
  8 10  1  0
 10 11  2  0
 10 12  1  0
 12 13  1  0
 13 14  1  6
 14 15  1  0
 13 16  1  0
 16 17  1  0
 17 18  2  0
 18 19  1  0
 19 20  2  0
 20 21  1  0
 21 22  1  0
 20 23  1  0
 23 24  2  0
 24 25  1  0
  6 26  1  0
 26 27  2  0
 27  3  1  0
 24 17  1  0
M  END
>  <energy>  (46) 
77.31

>  <full_id>  (46) 
MOL00001100-000351-02_1

>  <mol_id>  (46) 
MOL00001100-000351-02

>  <act_mol>  (46) 
0

>  <act_conf>  (46) 
0

$$$$
MOL00001193-002214-03
     RDKit          3D

 26 28  0  0  0  0  0  0  0  0999 V2000
   -5.1244   -0.2719    0.5330 C   0  0  0  0  0  0  0  0  0  0  0  0
   -3.7215   -0.1470   -0.0707 C   0  0  1  0  0  0  0  0  0  0  0  0
   -3.1824    1.1244    0.3107 O   0  0  0  0  0  0  0  0  0  0  0  0
   -2.7797   -1.2656    0.4281 C   0  0  0  0  0  0  0  0  0  0  0  0
   -2.6119   -1.4239    1.9482 C   0  0  1  0  0  0  0  0  0  0  0  0
   -1.7251   -2.5311    2.1734 O   0  0  0  0  0  0  0  0  0  0  0  0
   -2.1129   -0.1819    2.7142 C   0  0  0  0  0  0  0  0  0  0  0  0
   -1.0845    0.5673    2.0106 N   0  0  0  0  0  0  0  0  0  0  0  0
    0.1846    0.0696    1.8314 C   0  0  0  0  0  0  0  0  0  0  0  0
    0.5669   -0.9854    2.3263 O   0  0  0  0  0  0  0  0  0  0  0  0
    1.0765    0.8466    0.9315 C   0  0  0  0  0  0  0  0  0  0  0  0
    0.9504    2.2359    0.7906 C   0  0  0  0  0  0  0  0  0  0  0  0
    1.8133    2.9371   -0.0556 C   0  0  0  0  0  0  0  0  0  0  0  0
    2.8121    2.2576   -0.7529 C   0  0  0  0  0  0  0  0  0  0  0  0
    2.9513    0.8753   -0.5905 C   0  0  0  0  0  0  0  0  0  0  0  0
    4.2117    0.0009   -1.4939 S   0  0  0  0  0  6  0  0  0  0  0  0
    3.6933   -1.3170   -1.7912 O   0  0  0  0  0  0  0  0  0  0  0  0
    4.6794    0.8811   -2.5446 O   0  0  0  0  0  0  0  0  0  0  0  0
    5.4475   -0.1540   -0.3613 N   0  0  0  0  0  0  0  0  0  0  0  0
    5.4230   -0.9619    0.8878 C   0  0  0  0  0  0  0  0  0  0  0  0
    5.7809    0.2882    1.7067 C   0  0  0  0  0  0  0  0  0  0  0  0
    6.1383    0.9449    0.3641 C   0  0  0  0  0  0  0  0  0  0  0  0
    2.0785    0.1625    0.2357 C   0  0  0  0  0  0  0  0  0  0  0  0
   -3.8125   -0.2285   -1.5856 C   0  0  0  0  0  0  0  0  0  0  0  0
   -2.7618    0.4017   -2.4694 C   0  0  0  0  0  0  0  0  0  0  0  0
   -4.1631    0.9491   -2.4677 C   0  0  0  0  0  0  0  0  0  0  0  0
  2  1  1  1
  2  3  1  0
  2  4  1  0
  4  5  1  0
  5  6  1  6
  5  7  1  0
  7  8  1  0
  8  9  1  0
  9 10  2  0
  9 11  1  0
 11 12  2  0
 12 13  1  0
 13 14  2  0
 14 15  1  0
 15 16  1  0
 16 17  2  0
 16 18  2  0
 16 19  1  0
 19 20  1  0
 20 21  1  0
 21 22  1  0
 15 23  2  0
  2 24  1  0
 24 25  1  0
 25 26  1  0
 23 11  1  0
 26 24  1  0
 22 19  1  0
M  END
>  <energy>  (47) 
11.19

>  <full_id>  (47) 
MOL00001193-002214-03_1

>  <mol_id>  (47) 
MOL00001193-002214-03

>  <act_mol>  (47) 
0

>  <act_conf>  (47) 
0

$$$$
MOL00001452-001344-02
     RDKit          3D

 24 26  0  0  0  0  0  0  0  0999 V2000
   -1.1345    3.8692   -0.0624 N   0  0  0  0  0  0  0  0  0  0  0  0
   -0.4143    3.0525    0.3417 C   0  0  0  0  0  0  0  0  0  0  0  0
    0.5030    2.0580    0.8211 C   0  0  0  0  0  0  0  0  0  0  0  0
    1.5994    1.7296    0.0065 C   0  0  0  0  0  0  0  0  0  0  0  0
    2.5172    0.7424    0.3922 C   0  0  0  0  0  0  0  0  0  0  0  0
    3.6243    0.3191   -0.5381 C   0  0  0  0  0  0  0  0  0  0  0  0
    3.1010   -1.1191   -1.4977 S   0  0  0  0  0  6  0  0  0  0  0  0
    1.7061   -0.5969   -2.2659 N   0  0  0  0  0  0  0  0  0  0  0  0
    2.6941   -2.1941   -0.6209 O   0  0  0  0  0  0  0  0  0  0  0  0
    4.0523   -1.3431   -2.5635 O   0  0  0  0  0  0  0  0  0  0  0  0
    2.3563    0.1258    1.6364 C   0  0  0  0  0  0  0  0  0  0  0  0
    1.2704    0.4517    2.4516 C   0  0  0  0  0  0  0  0  0  0  0  0
    0.3124    1.3956    2.0491 C   0  0  0  0  0  0  0  0  0  0  0  0
   -0.8472    1.5643    2.8484 N   0  0  0  0  0  0  0  0  0  0  0  0
   -1.7437    0.3823    2.7918 C   0  0  0  0  0  0  0  0  0  0  0  0
   -2.3340    0.0574    1.4445 C   0  0  0  0  0  0  0  0  0  0  0  0
   -3.3216    0.8142    0.9416 N   0  0  0  0  0  0  0  0  0  0  0  0
   -3.5358    0.2938   -0.2785 N   0  0  0  0  0  0  0  0  0  0  0  0
   -2.7304   -0.7700   -0.5856 C   0  0  0  0  0  0  0  0  0  0  0  0
   -2.6386   -1.5653   -1.7326 C   0  0  0  0  0  0  0  0  0  0  0  0
   -1.6829   -2.5868   -1.7257 C   0  0  0  0  0  0  0  0  0  0  0  0
   -0.8549   -2.7921   -0.6224 C   0  0  0  0  0  0  0  0  0  0  0  0
   -0.9608   -1.9804    0.5137 C   0  0  0  0  0  0  0  0  0  0  0  0
   -1.9249   -0.9553    0.5322 C   0  0  0  0  0  0  0  0  0  0  0  0
  1  2  3  0
  2  3  1  0
  3  4  2  0
  4  5  1  0
  5  6  1  0
  6  7  1  0
  7  8  1  0
  7  9  2  0
  7 10  2  0
  5 11  2  0
 11 12  1  0
 12 13  2  0
 13 14  1  0
 14 15  1  0
 15 16  1  0
 16 17  2  0
 17 18  1  0
 18 19  1  0
 19 20  2  0
 20 21  1  0
 21 22  2  0
 22 23  1  0
 23 24  2  0
 13  3  1  0
 24 16  1  0
 24 19  1  0
M  END
>  <energy>  (48) 
36.92

>  <full_id>  (48) 
MOL00001452-001344-02_1

>  <mol_id>  (48) 
MOL00001452-001344-02

>  <act_mol>  (48) 
0

>  <act_conf>  (48) 
0

$$$$
MOL00001298-000053-04
     RDKit          3D

 27 28  0  0  0  0  0  0  0  0999 V2000
   -6.7728   -0.8998    1.9525 C   0  0  0  0  0  0  0  0  0  0  0  0
   -7.1142   -0.2196    0.6186 C   0  0  0  0  0  0  0  0  0  0  0  0
   -8.6059    0.1565    0.6411 C   0  0  0  0  0  0  0  0  0  0  0  0
   -6.8819   -1.1824   -0.5554 C   0  0  0  0  0  0  0  0  0  0  0  0
   -6.4299    1.0446    0.4540 O   0  0  0  0  0  0  0  0  0  0  0  0
   -5.0698    0.9967    0.3565 C   0  0  0  0  0  0  0  0  0  0  0  0
   -4.4686    0.9478   -0.8974 C   0  0  0  0  0  0  0  0  0  0  0  0
   -3.0737    0.9594   -1.0093 C   0  0  0  0  0  0  0  0  0  0  0  0
   -2.2740    1.0487    0.1317 C   0  0  0  0  0  0  0  0  0  0  0  0
   -0.8632    1.0695    0.1116 N   0  0  0  0  0  0  0  0  0  0  0  0
   -0.0312    0.8920   -0.9819 C   0  0  0  0  0  0  0  0  0  0  0  0
   -0.3970    0.6986   -2.1397 O   0  0  0  0  0  0  0  0  0  0  0  0
    1.4322    1.0693   -0.6900 C   0  0  0  0  0  0  0  0  0  0  0  0
    1.9527   -0.1120    0.5189 S   0  0  0  0  0  6  0  0  0  0  0  0
    1.3072    0.2385    1.7686 O   0  0  0  0  0  0  0  0  0  0  0  0
    1.8929   -1.4489   -0.0208 O   0  0  0  0  0  0  0  0  0  0  0  0
    3.5682    0.3025    0.7247 N   0  0  0  0  0  0  0  0  0  0  0  0
    4.5796   -0.2494   -0.2009 C   0  0  1  0  0  0  0  0  0  0  0  0
    5.6506    0.8177   -0.4538 C   0  0  0  0  0  0  0  0  0  0  0  0
    6.5520    1.0621    0.7569 C   0  0  0  0  0  0  0  0  0  0  0  0
    7.1892   -0.2412    1.2611 C   0  0  1  0  0  0  0  0  0  0  0  0
    8.0928    0.0005    2.4766 C   0  0  0  0  0  0  0  0  0  0  0  0
    7.3644    0.5499    3.5657 O   0  0  0  0  0  0  0  0  0  0  0  0
    6.1017   -1.2797    1.5761 C   0  0  0  0  0  0  0  0  0  0  0  0
    5.1891   -1.5312    0.3742 C   0  0  0  0  0  0  0  0  0  0  0  0
   -2.8931    1.1459    1.3858 C   0  0  0  0  0  0  0  0  0  0  0  0
   -4.2863    1.1340    1.4969 C   0  0  0  0  0  0  0  0  0  0  0  0
  2  1  1  0
  2  3  1  0
  2  4  1  0
  2  5  1  0
  5  6  1  0
  6  7  2  0
  7  8  1  0
  8  9  2  0
  9 10  1  0
 10 11  1  0
 11 12  2  0
 11 13  1  0
 14 13  1  0
 14 15  2  0
 14 16  2  0
 14 17  1  0
 18 17  1  1
 18 19  1  0
 19 20  1  0
 20 21  1  0
 21 22  1  1
 22 23  1  0
 21 24  1  0
 24 25  1  0
  9 26  1  0
 26 27  2  0
 27  6  1  0
 25 18  1  0
M  END
>  <energy>  (49) 
-57.84

>  <full_id>  (49) 
MOL00001298-000053-04_1

>  <mol_id>  (49) 
MOL00001298-000053-04

>  <act_mol>  (49) 
0

>  <act_conf>  (49) 
0

$$$$
MOL00001545-000644-04
     RDKit          3D

 22 23  0  0  0  0  0  0  0  0999 V2000
    4.2023   -2.6123    1.7348 C   0  0  0  0  0  0  0  0  0  0  0  0
    4.3639   -1.5708    0.7526 N   0  0  0  0  0  0  0  0  0  0  0  0
    3.8385   -1.7147   -0.5144 C   0  0  0  0  0  0  0  0  0  0  0  0
    3.3289   -2.7534   -0.9220 O   0  0  0  0  0  0  0  0  0  0  0  0
    4.0102   -0.4781   -1.3765 C   0  0  0  0  0  0  0  0  0  0  0  0
    3.0289   -0.4393   -2.5494 C   0  0  0  0  0  0  0  0  0  0  0  0
    1.5742   -0.2704   -2.0992 C   0  0  0  0  0  0  0  0  0  0  0  0
    1.4081    1.0361   -1.4792 N   0  0  0  0  0  0  0  0  0  0  0  0
    0.1378    1.2573   -0.9566 C   0  0  0  0  0  0  0  0  0  0  0  0
   -0.5230    0.2695   -0.3504 N   0  0  0  0  0  0  0  0  0  0  0  0
   -1.7364    0.5352    0.1589 C   0  0  0  0  0  0  0  0  0  0  0  0
   -2.4486   -0.5035    0.8079 N   0  0  0  0  0  0  0  0  0  0  0  0
   -1.6877   -1.7535    0.9511 C   0  0  0  0  0  0  0  0  0  0  0  0
   -2.5769   -2.8366    1.5940 C   0  0  0  0  0  0  0  0  0  0  0  0
   -3.3149   -2.3515    2.7723 N   0  0  0  0  0  0  0  0  0  0  0  0
   -2.3266    1.8033    0.0383 C   0  0  0  0  0  0  0  0  0  0  0  0
   -3.6183    2.1546    0.5095 C   0  0  0  0  0  0  0  0  0  0  0  0
   -4.1112    3.4471    0.3476 C   0  0  0  0  0  0  0  0  0  0  0  0
   -3.3253    4.3988   -0.2868 C   0  0  0  0  0  0  0  0  0  0  0  0
   -2.0574    4.0476   -0.7591 C   0  0  0  0  0  0  0  0  0  0  0  0
   -1.5449    2.7635   -0.6114 C   0  0  0  0  0  0  0  0  0  0  0  0
   -0.3293    2.4990   -1.0989 N   0  0  0  0  0  0  0  0  0  0  0  0
  1  2  1  0
  2  3  1  0
  3  4  2  0
  3  5  1  0
  5  6  1  0
  6  7  1  0
  7  8  1  0
  8  9  1  0
  9 10  2  0
 10 11  1  0
 11 12  1  0
 12 13  1  0
 13 14  1  0
 14 15  1  0
 11 16  2  0
 16 17  1  0
 17 18  2  0
 18 19  1  0
 19 20  2  0
 20 21  1  0
 21 22  2  0
 22  9  1  0
 21 16  1  0
M  END
>  <energy>  (50) 
-106.66

>  <full_id>  (50) 
MOL00001545-000644-04_1

>  <mol_id>  (50) 
MOL00001545-000644-04

>  <act_mol>  (50) 
0

>  <act_conf>  (50) 
0

$$$$
MOL00001616-002527-02
     RDKit          3D

 22 23  0  0  0  0  0  0  0  0999 V2000
    6.7424   -1.3551    1.9830 C   0  0  0  0  0  0  0  0  0  0  0  0
    5.6308   -0.6539    1.3109 C   0  0  0  0  0  0  0  0  0  0  0  0
    4.3469   -0.9228    1.3730 N   0  0  0  0  0  0  0  0  0  0  0  0
    3.7585    0.0266    0.5667 C   0  0  0  0  0  0  0  0  0  0  0  0
    2.3197    0.1045    0.3402 C   0  0  0  0  0  0  0  0  0  0  0  0
    1.7832    1.1011   -0.4903 C   0  0  0  0  0  0  0  0  0  0  0  0
    0.4022    1.1905   -0.7184 C   0  0  0  0  0  0  0  0  0  0  0  0
   -0.4729    0.2848   -0.1205 C   0  0  0  0  0  0  0  0  0  0  0  0
   -1.8665    0.3063   -0.2969 N   0  0  0  0  0  0  0  0  0  0  0  0
   -2.6243    1.1857   -1.0479 C   0  0  0  0  0  0  0  0  0  0  0  0
   -2.2142    2.1310   -1.7142 O   0  0  0  0  0  0  0  0  0  0  0  0
   -4.1212    0.8570   -0.9841 C   0  0  0  0  0  0  0  0  0  0  0  0
   -4.4040   -0.1624   -0.0207 O   0  0  0  0  0  0  0  0  0  0  0  0
   -5.7891   -0.4928    0.0248 C   0  0  0  0  0  0  0  0  0  0  0  0
   -6.2887   -1.3700   -1.1176 C   0  0  0  0  0  0  0  0  0  0  0  0
   -5.6414   -1.7948   -2.0601 O   0  0  0  0  0  0  0  0  0  0  0  0
   -7.6018   -1.6587   -1.0044 O   0  0  0  0  0  0  0  0  0  0  0  0
    0.0530   -0.7105    0.7062 C   0  0  0  0  0  0  0  0  0  0  0  0
    1.4301   -0.7953    0.9307 C   0  0  0  0  0  0  0  0  0  0  0  0
    1.8587   -1.7779    1.7376 F   0  0  0  0  0  0  0  0  0  0  0  0
    4.6456    0.8727    0.0118 N   0  0  0  0  0  0  0  0  0  0  0  0
    5.8110    0.4216    0.4952 N   0  0  0  0  0  0  0  0  0  0  0  0
  1  2  1  0
  2  3  2  0
  3  4  1  0
  4  5  1  0
  5  6  2  0
  6  7  1  0
  7  8  2  0
  8  9  1  0
  9 10  1  0
 10 11  2  0
 10 12  1  0
 12 13  1  0
 13 14  1  0
 14 15  1  0
 15 16  2  0
 15 17  1  0
  8 18  1  0
 18 19  2  0
 19 20  1  0
  4 21  2  0
 21 22  1  0
 22  2  1  0
 19  5  1  0
M  END
>  <energy>  (51) 
49.60

>  <full_id>  (51) 
MOL00001616-002527-02_1

>  <mol_id>  (51) 
MOL00001616-002527-02

>  <act_mol>  (51) 
0

>  <act_conf>  (51) 
0

$$$$
MOL00001613-001186-02
     RDKit          3D

 26 27  0  0  0  0  0  0  0  0999 V2000
   -0.3763    1.8127    1.8112 C   0  0  0  0  0  0  0  0  0  0  0  0
    0.1668    0.4588    1.9117 N   0  0  0  0  0  0  0  0  0  0  0  0
   -0.8340   -0.6292    1.7030 C   0  0  0  0  0  0  0  0  0  0  0  0
   -1.5757   -0.7079    0.3869 C   0  0  0  0  0  0  0  0  0  0  0  0
   -1.3850   -1.6831   -0.5146 N   0  0  0  0  0  0  0  0  0  0  0  0
   -2.2299   -1.3226   -1.4901 N   0  0  0  0  0  0  0  0  0  0  0  0
   -2.8981   -0.1679   -1.1834 C   0  0  0  0  0  0  0  0  0  0  0  0
   -3.9026    0.4840   -2.1001 C   0  0  0  0  0  0  0  0  0  0  0  0
   -5.0712   -0.4792   -2.3738 C   0  0  0  0  0  0  0  0  0  0  0  0
   -3.2294    0.8702   -3.4289 C   0  0  0  0  0  0  0  0  0  0  0  0
   -4.4638    1.7614   -1.4457 C   0  0  0  0  0  0  0  0  0  0  0  0
   -2.5038    0.2369    0.0064 N   0  0  0  0  0  0  0  0  0  0  0  0
    1.3754    0.2192    1.2336 C   0  0  0  0  0  0  0  0  0  0  0  0
    1.5639    0.6509   -0.0916 C   0  0  0  0  0  0  0  0  0  0  0  0
    2.7661    0.4284   -0.7688 C   0  0  0  0  0  0  0  0  0  0  0  0
    3.8196   -0.2188   -0.1313 C   0  0  0  0  0  0  0  0  0  0  0  0
    4.9529   -0.4133   -0.8749 O   0  0  0  0  0  0  0  0  0  0  0  0
    6.4246   -0.2097   -0.2119 S   0  0  0  0  0  6  0  0  0  0  0  0
    7.4615   -0.2306   -1.5367 N   0  0  0  0  0  0  0  0  0  0  0  0
    6.7907   -1.3816    0.5513 O   0  0  0  0  0  0  0  0  0  0  0  0
    6.5498    1.1273    0.3218 O   0  0  0  0  0  0  0  0  0  0  0  0
    3.6585   -0.6810    1.1709 C   0  0  0  0  0  0  0  0  0  0  0  0
    2.4455   -0.4638    1.8539 C   0  0  0  0  0  0  0  0  0  0  0  0
    2.3326   -0.9759    3.2438 C   0  0  0  0  0  0  0  0  0  0  0  0
    1.3860   -1.5234    3.7751 O   0  0  0  0  0  0  0  0  0  0  0  0
    3.4813   -0.7738    3.9223 O   0  0  0  0  0  0  0  0  0  0  0  0
  1  2  1  0
  2  3  1  0
  3  4  1  0
  4  5  2  0
  5  6  1  0
  6  7  1  0
  7  8  1  0
  8  9  1  0
  8 10  1  0
  8 11  1  0
  7 12  2  0
  2 13  1  0
 13 14  2  0
 14 15  1  0
 15 16  2  0
 16 17  1  0
 17 18  1  0
 18 19  1  0
 18 20  2  0
 18 21  2  0
 16 22  1  0
 22 23  2  0
 23 24  1  0
 24 25  2  0
 24 26  1  0
 12  4  1  0
 23 13  1  0
M  END
>  <energy>  (52) 
-16.74

>  <full_id>  (52) 
MOL00001613-001186-02_1

>  <mol_id>  (52) 
MOL00001613-001186-02

>  <act_mol>  (52) 
0

>  <act_conf>  (52) 
0

$$$$
MOL00001432-001227-03
     RDKit          3D

 31 34  0  0  0  0  0  0  0  0999 V2000
   -1.3227    1.3032   -0.5975 O   0  0  0  0  0  0  0  0  0  0  0  0
   -0.9887    0.5680    0.3242 C   0  0  0  0  0  0  0  0  0  0  0  0
   -1.7163    0.4259    1.4871 N   0  0  0  0  0  0  0  0  0  0  0  0
   -2.9479    1.1670    1.7124 C   0  0  0  0  0  0  0  0  0  0  0  0
   -4.1144    0.6114    0.9034 C   0  0  0  0  0  0  0  0  0  0  0  0
   -5.4117    1.3079    1.2639 C   0  0  0  0  0  0  0  0  0  0  0  0
   -5.4715    2.1607    2.1488 O   0  0  0  0  0  0  0  0  0  0  0  0
   -6.5269    0.9089    0.5601 N   0  0  0  0  0  0  0  0  0  0  0  0
   -7.8365    1.4739    0.8336 C   0  0  0  0  0  0  0  0  0  0  0  0
   -8.8034    0.5559    0.1007 C   0  0  0  0  0  0  0  0  0  0  0  0
   -7.9841    0.0848   -1.0940 C   0  0  0  0  0  0  0  0  0  0  0  0
   -6.5864   -0.0743   -0.5108 C   0  0  0  0  0  0  0  0  0  0  0  0
    0.2371   -0.2529    0.2029 C   0  0  0  0  0  0  0  0  0  0  0  0
    0.9703   -0.7106    1.2937 C   0  0  0  0  0  0  0  0  0  0  0  0
    2.1163   -1.4755    1.0672 C   0  0  0  0  0  0  0  0  0  0  0  0
    2.5190   -1.7584   -0.2376 C   0  0  0  0  0  0  0  0  0  0  0  0
    3.6579   -2.5508   -0.4166 N   0  0  0  0  0  0  0  0  0  0  0  0
    4.0876   -2.7741   -1.8033 C   0  0  0  0  0  0  0  0  0  0  0  0
    4.7427   -1.5386   -2.4452 C   0  0  0  0  0  0  0  0  0  0  0  0
    5.8675   -1.0413   -1.6843 N   0  0  0  0  0  0  0  0  0  0  0  0
    7.1288   -1.6634   -1.6178 C   0  0  0  0  0  0  0  0  0  0  0  0
    7.4885   -2.6789   -2.1883 O   0  0  0  0  0  0  0  0  0  0  0  0
    7.9076   -0.8919   -0.7421 N   0  0  0  0  0  0  0  0  0  0  0  0
    7.1434    0.1720   -0.2758 C   0  0  0  0  0  0  0  0  0  0  0  0
    7.4918    1.1702    0.6044 C   0  0  0  0  0  0  0  0  0  0  0  0
    6.5065    2.1157    0.9053 C   0  0  0  0  0  0  0  0  0  0  0  0
    5.2217    2.0364    0.3263 C   0  0  0  0  0  0  0  0  0  0  0  0
    4.8933    1.0104   -0.5676 C   0  0  0  0  0  0  0  0  0  0  0  0
    5.8754    0.0873   -0.8531 C   0  0  0  0  0  0  0  0  0  0  0  0
    1.8158   -1.3166   -1.2988 N   0  0  0  0  0  0  0  0  0  0  0  0
    0.7055   -0.5704   -1.0629 C   0  0  0  0  0  0  0  0  0  0  0  0
  1  2  2  0
  2  3  1  0
  3  4  1  0
  4  5  1  0
  5  6  1  0
  6  7  2  0
  6  8  1  0
  8  9  1  0
  9 10  1  0
 10 11  1  0
 11 12  1  0
  2 13  1  0
 13 14  2  0
 14 15  1  0
 15 16  2  0
 16 17  1  0
 17 18  1  0
 18 19  1  0
 19 20  1  0
 20 21  1  0
 21 22  2  0
 21 23  1  0
 23 24  1  0
 24 25  2  0
 25 26  1  0
 26 27  2  0
 27 28  1  0
 28 29  2  0
 16 30  1  0
 30 31  2  0
 12  8  1  0
 31 13  1  0
 29 20  1  0
 29 24  1  0
M  END
>  <energy>  (53) 
-57.55

>  <full_id>  (53) 
MOL00001432-001227-03_1

>  <mol_id>  (53) 
MOL00001432-001227-03

>  <act_mol>  (53) 
0

>  <act_conf>  (53) 
0

$$$$
MOL00001470-001356-04
     RDKit          3D

 31 34  0  0  0  0  0  0  0  0999 V2000
    5.4091   -2.8517    2.7915 C   0  0  0  0  0  0  0  0  0  0  0  0
    4.7204   -1.9570    1.9269 O   0  0  0  0  0  0  0  0  0  0  0  0
    5.2690   -1.7243    0.6886 C   0  0  0  0  0  0  0  0  0  0  0  0
    6.5526   -2.1366    0.3145 C   0  0  0  0  0  0  0  0  0  0  0  0
    7.0300   -1.8476   -0.9610 C   0  0  0  0  0  0  0  0  0  0  0  0
    8.2632   -2.2432   -1.3043 F   0  0  0  0  0  0  0  0  0  0  0  0
    6.2551   -1.1587   -1.8816 C   0  0  0  0  0  0  0  0  0  0  0  0
    4.9746   -0.7442   -1.5194 C   0  0  0  0  0  0  0  0  0  0  0  0
    4.4616   -1.0118   -0.2334 C   0  0  0  0  0  0  0  0  0  0  0  0
    3.1046   -0.5449    0.1051 C   0  0  0  0  0  0  0  0  0  0  0  0
    1.9810   -1.0736   -0.5406 C   0  0  0  0  0  0  0  0  0  0  0  0
    0.6933   -0.6263   -0.2287 C   0  0  0  0  0  0  0  0  0  0  0  0
    0.4957    0.3685    0.7326 C   0  0  0  0  0  0  0  0  0  0  0  0
   -0.7876    0.8745    1.0343 N   0  0  0  0  0  0  0  0  0  0  0  0
   -2.0046    0.2888    0.7892 C   0  0  0  0  0  0  0  0  0  0  0  0
   -2.1605   -0.8640    0.3877 O   0  0  0  0  0  0  0  0  0  0  0  0
   -3.0982    1.1075    1.0778 N   0  0  0  0  0  0  0  0  0  0  0  0
   -3.0742    2.5640    0.8756 C   0  0  0  0  0  0  0  0  0  0  0  0
   -3.9761    3.2785    1.8741 C   0  0  0  0  0  0  0  0  0  0  0  0
   -5.4002    2.7371    1.8098 C   0  0  0  0  0  0  0  0  0  0  0  0
   -5.4132    1.2177    1.9844 C   0  0  0  0  0  0  0  0  0  0  0  0
   -4.4341    0.4866    1.0508 C   0  0  1  0  0  0  0  0  0  0  0  0
   -4.9281    0.3824   -0.3611 C   0  0  0  0  0  0  0  0  0  0  0  0
   -5.8739    1.0705   -0.9714 N   0  0  0  0  0  0  0  0  0  0  0  0
   -5.9635    0.6126   -2.2682 N   0  0  0  0  0  0  0  0  0  0  0  0
   -5.0711   -0.3376   -2.4184 C   0  0  0  0  0  0  0  0  0  0  0  0
   -4.3975   -0.5160   -1.2521 N   0  0  0  0  0  0  0  0  0  0  0  0
    1.6141    0.9230    1.3914 C   0  0  0  0  0  0  0  0  0  0  0  0
    1.4775    1.9560    2.4825 C   0  0  0  0  0  0  0  0  0  0  0  0
    0.6644    3.0384    2.0367 O   0  0  0  0  0  0  0  0  0  0  0  0
    2.9024    0.4499    1.0734 C   0  0  0  0  0  0  0  0  0  0  0  0
  1  2  1  0
  2  3  1  0
  3  4  2  0
  4  5  1  0
  5  6  1  0
  5  7  2  0
  7  8  1  0
  8  9  2  0
  9 10  1  0
 10 11  2  0
 11 12  1  0
 12 13  2  0
 13 14  1  0
 14 15  1  0
 15 16  2  0
 15 17  1  0
 17 18  1  0
 18 19  1  0
 19 20  1  0
 20 21  1  0
 21 22  1  0
 22 23  1  6
 23 24  2  0
 24 25  1  0
 25 26  2  0
 26 27  1  0
 13 28  1  0
 28 29  1  0
 29 30  1  0
 28 31  2  0
  9  3  1  0
 31 10  1  0
 22 17  1  0
 27 23  1  0
M  END
>  <energy>  (54) 
-32.41

>  <full_id>  (54) 
MOL00001470-001356-04_1

>  <mol_id>  (54) 
MOL00001470-001356-04

>  <act_mol>  (54) 
0

>  <act_conf>  (54) 
0

$$$$
MOL00001622-000198-04
     RDKit          3D

 30 33  0  0  0  0  0  0  0  0999 V2000
   -7.4171   -1.2585   -0.7274 C   0  0  0  0  0  0  0  0  0  0  0  0
   -6.8248    0.0837   -0.3213 C   0  0  0  0  0  0  0  0  0  0  0  0
   -5.4551   -0.0558    0.1662 N   0  0  0  0  0  0  0  0  0  0  0  0
   -4.3512    0.0784   -0.6842 C   0  0  0  0  0  0  0  0  0  0  0  0
   -4.5414    0.2907   -2.0181 N   0  0  0  0  0  0  0  0  0  0  0  0
   -3.1065    0.0052   -0.2881 N   0  0  0  0  0  0  0  0  0  0  0  0
   -2.9346   -0.2260    1.0371 C   0  0  0  0  0  0  0  0  0  0  0  0
   -3.9390   -0.3988    1.9534 C   0  0  0  0  0  0  0  0  0  0  0  0
   -3.3134   -0.6260    3.1755 C   0  0  0  0  0  0  0  0  0  0  0  0
   -1.9839   -0.6038    3.0694 N   0  0  0  0  0  0  0  0  0  0  0  0
   -1.7368   -0.3463    1.7419 N   0  0  0  0  0  0  0  0  0  0  0  0
   -0.3872   -0.2457    1.2840 C   0  0  0  0  0  0  0  0  0  0  0  0
    0.6618   -0.4313    2.1970 C   0  0  0  0  0  0  0  0  0  0  0  0
    1.9946   -0.3402    1.7793 C   0  0  0  0  0  0  0  0  0  0  0  0
    2.3093   -0.0620    0.4455 C   0  0  0  0  0  0  0  0  0  0  0  0
    3.6769    0.0116    0.1118 N   0  0  0  0  0  0  0  0  0  0  0  0
    4.2379    0.2647   -1.1216 C   0  0  0  0  0  0  0  0  0  0  0  0
    3.6231    0.4705   -2.1649 O   0  0  0  0  0  0  0  0  0  0  0  0
    5.7354    0.2769   -1.1317 C   0  0  0  0  0  0  0  0  0  0  0  0
    6.3653    0.5202   -2.2920 C   0  0  0  0  0  0  0  0  0  0  0  0
    7.7321    0.5482   -2.3821 N   0  0  0  0  0  0  0  0  0  0  0  0
    8.5666    0.3354   -1.3203 C   0  0  0  0  0  0  0  0  0  0  0  0
    9.7863    0.3663   -1.4302 O   0  0  0  0  0  0  0  0  0  0  0  0
    7.9442    0.0862   -0.1305 N   0  0  0  0  0  0  0  0  0  0  0  0
    6.5892    0.0375    0.0596 C   0  0  0  0  0  0  0  0  0  0  0  0
    6.1034   -0.1940    1.1650 O   0  0  0  0  0  0  0  0  0  0  0  0
    1.2676    0.1251   -0.4620 C   0  0  0  0  0  0  0  0  0  0  0  0
   -0.0709    0.0350   -0.0485 C   0  0  0  0  0  0  0  0  0  0  0  0
   -5.3068   -0.3252    1.5370 C   0  0  0  0  0  0  0  0  0  0  0  0
   -6.2355   -0.4915    2.3218 O   0  0  0  0  0  0  0  0  0  0  0  0
  1  2  1  0
  2  3  1  0
  3  4  1  0
  4  5  1  0
  4  6  2  0
  6  7  1  0
  7  8  2  0
  8  9  1  0
  9 10  2  0
 10 11  1  0
 11 12  1  0
 12 13  2  0
 13 14  1  0
 14 15  2  0
 15 16  1  0
 16 17  1  0
 17 18  2  0
 17 19  1  0
 19 20  2  0
 20 21  1  0
 21 22  1  0
 22 23  2  0
 22 24  1  0
 24 25  1  0
 25 26  2  0
 15 27  1  0
 27 28  2  0
  8 29  1  0
 29 30  2  0
 29  3  1  0
 11  7  1  0
 28 12  1  0
 25 19  1  0
M  END
>  <energy>  (55) 
-142.39

>  <full_id>  (55) 
MOL00001622-000198-04_1

>  <mol_id>  (55) 
MOL00001622-000198-04

>  <act_mol>  (55) 
0

>  <act_conf>  (55) 
0

$$$$
MOL00001683-000527-04
     RDKit          3D

 25 26  0  0  0  0  0  0  0  0999 V2000
    7.1922    0.1672   -0.1443 C   0  0  0  0  0  0  0  0  0  0  0  0
    5.7942    0.1495   -0.4046 O   0  0  0  0  0  0  0  0  0  0  0  0
    5.5226   -0.2366   -1.7535 C   0  0  0  0  0  0  0  0  0  0  0  0
    4.0203   -0.2761   -2.0570 C   0  0  0  0  0  0  0  0  0  0  0  0
    3.6112   -0.5488   -3.1817 O   0  0  0  0  0  0  0  0  0  0  0  0
    3.2564    0.0187   -0.9480 N   0  0  0  0  0  0  0  0  0  0  0  0
    1.8555    0.0743   -0.8248 C   0  0  0  0  0  0  0  0  0  0  0  0
    0.9748   -0.1794   -1.8763 C   0  0  0  0  0  0  0  0  0  0  0  0
   -0.4126   -0.1031   -1.6823 C   0  0  0  0  0  0  0  0  0  0  0  0
   -0.9395    0.2082   -0.4288 C   0  0  0  0  0  0  0  0  0  0  0  0
   -2.3168    0.2998   -0.1609 N   0  0  0  0  0  0  0  0  0  0  0  0
   -3.3870    0.1112   -1.0091 C   0  0  0  0  0  0  0  0  0  0  0  0
   -3.3290   -0.1865   -2.1972 O   0  0  0  0  0  0  0  0  0  0  0  0
   -4.6779    0.3092   -0.3119 C   0  0  0  0  0  0  0  0  0  0  0  0
   -4.7225    0.6194    1.0034 N   0  0  0  0  0  0  0  0  0  0  0  0
   -6.0329    0.7221    1.2732 N   0  0  0  0  0  0  0  0  0  0  0  0
   -6.8333    0.4872    0.1986 C   0  0  0  0  0  0  0  0  0  0  0  0
   -5.9945    0.2135   -0.8597 C   0  0  0  0  0  0  0  0  0  0  0  0
   -6.3731   -0.1075   -2.2570 C   0  0  0  0  0  0  0  0  0  0  0  0
   -0.0562    0.4370    0.6395 C   0  0  0  0  0  0  0  0  0  0  0  0
   -0.5948    0.7196    1.8757 O   0  0  0  0  0  0  0  0  0  0  0  0
   -0.4714   -0.4152    2.7365 C   0  0  0  0  0  0  0  0  0  0  0  0
    1.3307    0.4154    0.4329 C   0  0  0  0  0  0  0  0  0  0  0  0
    2.2237    0.6778    1.4491 O   0  0  0  0  0  0  0  0  0  0  0  0
    2.1887    2.0615    1.8059 C   0  0  0  0  0  0  0  0  0  0  0  0
  1  2  1  0
  2  3  1  0
  3  4  1  0
  4  5  2  0
  4  6  1  0
  6  7  1  0
  7  8  2  0
  8  9  1  0
  9 10  2  0
 10 11  1  0
 11 12  1  0
 12 13  2  0
 12 14  1  0
 14 15  2  0
 15 16  1  0
 16 17  1  0
 17 18  2  0
 18 19  1  0
 10 20  1  0
 20 21  1  0
 21 22  1  0
 20 23  2  0
 23 24  1  0
 24 25  1  0
 23  7  1  0
 18 14  1  0
M  END
>  <energy>  (56) 
96.44

>  <full_id>  (56) 
MOL00001683-000527-04_1

>  <mol_id>  (56) 
MOL00001683-000527-04

>  <act_mol>  (56) 
0

>  <act_conf>  (56) 
0

$$$$
MOL00001611-000004-03
     RDKit          3D

 26 27  0  0  0  0  0  0  0  0999 V2000
    6.4559    2.7057   -0.5120 C   0  0  0  0  0  0  0  0  0  0  0  0
    6.5789    1.1973   -0.4713 C   0  0  0  0  0  0  0  0  0  0  0  0
    6.0265    0.6602    0.7530 N   0  0  0  0  0  0  0  0  0  0  0  0
    6.3565   -0.6093    1.1788 C   0  0  0  0  0  0  0  0  0  0  0  0
    7.1857   -1.3249    0.6262 O   0  0  0  0  0  0  0  0  0  0  0  0
    5.5077   -1.1081    2.3478 C   0  0  0  0  0  0  0  0  0  0  0  0
    4.3531   -1.8201    1.8271 N   0  0  0  0  0  0  0  0  0  0  0  0
    3.2748   -1.0912    1.3652 C   0  0  0  0  0  0  0  0  0  0  0  0
    3.2436    0.1317    1.4248 O   0  0  0  0  0  0  0  0  0  0  0  0
    2.3076   -1.9270    0.8580 N   0  0  0  0  0  0  0  0  0  0  0  0
    1.1196   -1.5653    0.1946 C   0  0  0  0  0  0  0  0  0  0  0  0
    0.2177   -2.5947   -0.1120 C   0  0  0  0  0  0  0  0  0  0  0  0
   -0.9761   -2.3220   -0.7852 C   0  0  0  0  0  0  0  0  0  0  0  0
   -1.2769   -1.0076   -1.1465 C   0  0  0  0  0  0  0  0  0  0  0  0
   -2.7720   -0.6541   -2.0527 S   0  0  0  0  0  6  0  0  0  0  0  0
   -3.1923   -1.8853   -2.6913 O   0  0  0  0  0  0  0  0  0  0  0  0
   -2.5308    0.5438   -2.8298 O   0  0  0  0  0  0  0  0  0  0  0  0
   -3.8892   -0.2820   -0.8237 N   0  0  0  0  0  0  0  0  0  0  0  0
   -4.3856   -1.3935    0.0109 C   0  0  0  0  0  0  0  0  0  0  0  0
   -5.8998   -1.4926   -0.1592 C   0  0  0  0  0  0  0  0  0  0  0  0
   -6.6888   -0.4072    0.5724 C   0  0  0  0  0  0  0  0  0  0  0  0
   -6.2766    1.0299    0.2483 C   0  0  0  0  0  0  0  0  0  0  0  0
   -4.8873    1.3804    0.7833 C   0  0  0  0  0  0  0  0  0  0  0  0
   -3.7332    1.0252   -0.1552 C   0  0  0  0  0  0  0  0  0  0  0  0
   -0.3743    0.0227   -0.8733 C   0  0  0  0  0  0  0  0  0  0  0  0
    0.8169   -0.2581   -0.1968 C   0  0  0  0  0  0  0  0  0  0  0  0
  1  2  1  0
  2  3  1  0
  3  4  1  0
  4  5  2  0
  4  6  1  0
  6  7  1  0
  7  8  1  0
  8  9  2  0
  8 10  1  0
 10 11  1  0
 11 12  2  0
 12 13  1  0
 13 14  2  0
 14 15  1  0
 15 16  2  0
 15 17  2  0
 15 18  1  0
 18 19  1  0
 19 20  1  0
 20 21  1  0
 21 22  1  0
 22 23  1  0
 23 24  1  0
 14 25  1  0
 25 26  2  0
 26 11  1  0
 24 18  1  0
M  END
>  <energy>  (57) 
-92.75

>  <full_id>  (57) 
MOL00001611-000004-03_1

>  <mol_id>  (57) 
MOL00001611-000004-03

>  <act_mol>  (57) 
0

>  <act_conf>  (57) 
0

$$$$
MOL00001692-001835-03
     RDKit          3D

 23 24  0  0  0  0  0  0  0  0999 V2000
   -7.3675    2.4416   -1.6299 C   0  0  0  0  0  0  0  0  0  0  0  0
   -5.9507    1.9881   -1.4861 C   0  0  0  0  0  0  0  0  0  0  0  0
   -5.3678    1.7341   -0.3037 C   0  0  0  0  0  0  0  0  0  0  0  0
   -3.9812    1.2715   -0.1464 C   0  0  0  0  0  0  0  0  0  0  0  0
   -3.6879    0.3643    0.8982 C   0  0  0  0  0  0  0  0  0  0  0  0
   -2.3855   -0.1006    1.1209 C   0  0  0  0  0  0  0  0  0  0  0  0
   -1.3803    0.3679    0.2965 C   0  0  0  0  0  0  0  0  0  0  0  0
   -1.6706    1.2673   -0.7267 C   0  0  0  0  0  0  0  0  0  0  0  0
   -2.9444    1.7401   -0.9670 C   0  0  0  0  0  0  0  0  0  0  0  0
   -0.5098    1.5893   -1.4113 N   0  0  0  0  0  0  0  0  0  0  0  0
    0.5873    0.9357   -0.8735 C   0  0  0  0  0  0  0  0  0  0  0  0
    1.7481    1.0642   -1.2338 O   0  0  0  0  0  0  0  0  0  0  0  0
    0.0902    0.0376    0.2782 C   0  0  1  0  0  0  0  0  0  0  0  0
    0.8218    0.3946    1.5643 C   0  0  0  0  0  0  0  0  0  0  0  0
    2.0526   -0.4702    1.7175 C   0  0  0  0  0  0  0  0  0  0  0  0
    2.0886   -1.4125    2.5021 O   0  0  0  0  0  0  0  0  0  0  0  0
    3.1037   -0.1296    0.8996 N   0  0  0  0  0  0  0  0  0  0  0  0
    4.3424   -0.8906    0.8838 C   0  0  0  0  0  0  0  0  0  0  0  0
    4.2006   -2.2027    0.1352 C   0  0  0  0  0  0  0  0  0  0  0  0
    5.7849   -3.0140    0.0402 S   0  0  0  0  0  6  0  0  0  0  0  0
    5.4039   -4.4112   -0.8063 N   0  0  0  0  0  0  0  0  0  0  0  0
    6.1969   -3.4599    1.3494 O   0  0  0  0  0  0  0  0  0  0  0  0
    6.6606   -2.2673   -0.8320 O   0  0  0  0  0  0  0  0  0  0  0  0
  1  2  1  0
  2  3  2  3
  3  4  1  0
  4  5  2  0
  5  6  1  0
  6  7  2  0
  7  8  1  0
  8  9  2  0
  8 10  1  0
 10 11  1  0
 11 12  2  0
 11 13  1  0
 13 14  1  1
 14 15  1  0
 15 16  2  0
 15 17  1  0
 17 18  1  0
 18 19  1  0
 19 20  1  0
 20 21  1  0
 20 22  2  0
 20 23  2  0
  9  4  1  0
 13  7  1  0
M  END
>  <energy>  (58) 
-121.01

>  <full_id>  (58) 
MOL00001692-001835-03_1

>  <mol_id>  (58) 
MOL00001692-001835-03

>  <act_mol>  (58) 
0

>  <act_conf>  (58) 
0

$$$$
MOL00001659-000402-03
     RDKit          3D

 27 28  0  0  0  0  0  0  0  0999 V2000
    6.3911    1.4359    3.3736 C   0  0  0  0  0  0  0  0  0  0  0  0
    6.0174    1.4654    1.9021 C   0  0  0  0  0  0  0  0  0  0  0  0
    4.7029    0.7543    1.6176 C   0  0  0  0  0  0  0  0  0  0  0  0
    4.0356    0.2349    2.5040 O   0  0  0  0  0  0  0  0  0  0  0  0
    4.3934    0.7918    0.2667 N   0  0  0  0  0  0  0  0  0  0  0  0
    3.2684    0.2327   -0.3723 C   0  0  0  0  0  0  0  0  0  0  0  0
    2.2890   -0.5133    0.2782 C   0  0  0  0  0  0  0  0  0  0  0  0
    1.1949   -1.0293   -0.4318 C   0  0  0  0  0  0  0  0  0  0  0  0
    1.0448   -0.7986   -1.8038 C   0  0  0  0  0  0  0  0  0  0  0  0
   -0.0716   -1.3169   -2.5331 N   0  0  0  0  0  0  0  0  0  0  0  0
    0.1514   -1.7197   -3.9173 C   0  0  0  0  0  0  0  0  0  0  0  0
   -1.3836   -1.4122   -2.0572 C   0  0  0  0  0  0  0  0  0  0  0  0
   -2.2562   -2.0749   -2.6243 O   0  0  0  0  0  0  0  0  0  0  0  0
   -1.7672   -0.6109   -0.8672 C   0  0  0  0  0  0  0  0  0  0  0  0
   -2.3160   -1.1748    0.2279 C   0  0  0  0  0  0  0  0  0  0  0  0
   -2.5413   -2.6603    0.3730 C   0  0  0  0  0  0  0  0  0  0  0  0
   -2.6837   -0.4619    1.3515 N   0  0  0  0  0  0  0  0  0  0  0  0
   -2.4883    0.8171    1.3680 C   0  0  0  0  0  0  0  0  0  0  0  0
   -2.8575    1.6652    2.5982 C   0  0  0  0  0  0  0  0  0  0  0  0
   -3.9105    2.7121    2.2026 C   0  0  0  0  0  0  0  0  0  0  0  0
   -3.4395    0.7831    3.7174 C   0  0  0  0  0  0  0  0  0  0  0  0
   -1.5982    2.3660    3.1324 C   0  0  0  0  0  0  0  0  0  0  0  0
   -1.9465    1.4816    0.3038 N   0  0  0  0  0  0  0  0  0  0  0  0
   -1.6263    0.8593   -0.8680 C   0  0  0  0  0  0  0  0  0  0  0  0
   -1.2685    1.5051   -1.8479 O   0  0  0  0  0  0  0  0  0  0  0  0
    2.0514   -0.0771   -2.4569 C   0  0  0  0  0  0  0  0  0  0  0  0
    3.1451    0.4386   -1.7491 C   0  0  0  0  0  0  0  0  0  0  0  0
  1  2  1  0
  2  3  1  0
  3  4  2  0
  3  5  1  0
  5  6  1  0
  6  7  2  0
  7  8  1  0
  8  9  2  0
  9 10  1  0
 10 11  1  0
 10 12  1  0
 12 13  2  0
 12 14  1  0
 14 15  2  0
 15 16  1  0
 15 17  1  0
 17 18  2  0
 18 19  1  0
 19 20  1  0
 19 21  1  0
 19 22  1  0
 18 23  1  0
 23 24  1  0
 24 25  2  0
  9 26  1  0
 26 27  2  0
 27  6  1  0
 24 14  1  0
M  END
>  <energy>  (59) 
-24.91

>  <full_id>  (59) 
MOL00001659-000402-03_1

>  <mol_id>  (59) 
MOL00001659-000402-03

>  <act_mol>  (59) 
0

>  <act_conf>  (59) 
0

$$$$
MOL00001524-001424-03
     RDKit          3D

 29 30  0  0  0  0  0  0  0  0999 V2000
   -2.8600   -2.2978   -2.9802 C   0  0  0  0  0  0  0  0  0  0  0  0
   -3.4637   -0.9560   -2.5682 C   0  0  0  0  0  0  0  0  0  0  0  0
   -3.1186    0.1203   -3.5928 C   0  0  0  0  0  0  0  0  0  0  0  0
   -2.9984   -0.5744   -1.2436 N   0  0  0  0  0  0  0  0  0  0  0  0
   -3.5444   -1.1088   -0.0888 C   0  0  0  0  0  0  0  0  0  0  0  0
   -4.5101   -1.8664   -0.1106 O   0  0  0  0  0  0  0  0  0  0  0  0
   -2.8922   -0.5759    1.2113 C   0  0  2  0  0  0  0  0  0  0  0  0
   -1.4332   -0.6177    1.0553 N   0  0  0  0  0  0  0  0  0  0  0  0
   -0.6116    0.3176    1.6296 C   0  0  0  0  0  0  0  0  0  0  0  0
   -0.9898    1.2853    2.2739 O   0  0  0  0  0  0  0  0  0  0  0  0
    0.8322    0.1357    1.3560 C   0  0  0  0  0  0  0  0  0  0  0  0
    1.4402   -1.0687    1.7290 C   0  0  0  0  0  0  0  0  0  0  0  0
    2.7995   -1.2613    1.4849 C   0  0  0  0  0  0  0  0  0  0  0  0
    3.5590   -0.2490    0.8967 C   0  0  0  0  0  0  0  0  0  0  0  0
    4.9309   -0.5328    0.6106 N   0  0  0  0  0  0  0  0  0  0  0  0
    5.9720    0.4640    0.9314 C   0  0  0  0  0  0  0  0  0  0  0  0
    7.2627   -0.1845    0.4322 C   0  0  0  0  0  0  0  0  0  0  0  0
    6.9680   -0.7136   -0.9660 C   0  0  0  0  0  0  0  0  0  0  0  0
    5.2420   -1.1857   -0.9528 S   0  0  0  0  0  6  0  0  0  0  0  0
    4.5536   -0.3796   -1.9388 O   0  0  0  0  0  0  0  0  0  0  0  0
    5.1069   -2.6224   -0.8842 O   0  0  0  0  0  0  0  0  0  0  0  0
    2.9448    0.9431    0.4973 C   0  0  0  0  0  0  0  0  0  0  0  0
    1.5723    1.1558    0.7228 C   0  0  0  0  0  0  0  0  0  0  0  0
    0.9212    2.4388    0.2423 C   0  0  0  0  0  0  0  0  0  0  0  0
   -0.1155    2.1900   -0.7743 C   0  0  0  0  0  0  0  0  0  0  0  0
   -0.9384    1.9372   -1.5547 N   0  0  0  0  0  0  0  0  0  0  0  0
   -3.3178   -1.2817    2.5191 C   0  0  0  0  0  0  0  0  0  0  0  0
   -3.0267   -2.7852    2.5262 C   0  0  0  0  0  0  0  0  0  0  0  0
   -4.7826   -1.0129    2.8747 C   0  0  0  0  0  0  0  0  0  0  0  0
  2  1  1  0
  2  3  1  0
  2  4  1  0
  4  5  1  0
  5  6  2  0
  5  7  1  0
  7  8  1  6
  8  9  1  0
  9 10  2  0
  9 11  1  0
 11 12  2  0
 12 13  1  0
 13 14  2  0
 14 15  1  0
 15 16  1  0
 16 17  1  0
 17 18  1  0
 19 18  1  0
 19 20  2  0
 19 21  2  0
 14 22  1  0
 22 23  2  0
 23 24  1  0
 24 25  1  0
 25 26  3  0
  7 27  1  0
 27 28  1  0
 27 29  1  0
 23 11  1  0
 19 15  1  0
M  END
>  <energy>  (60) 
0.03

>  <full_id>  (60) 
MOL00001524-001424-03_1

>  <mol_id>  (60) 
MOL00001524-001424-03

>  <act_mol>  (60) 
0

>  <act_conf>  (60) 
0

$$$$
MOL00001733-000620-03
     RDKit          3D

 24 25  0  0  0  0  0  0  0  0999 V2000
    3.7347    3.0401    0.6397 C   0  0  0  0  0  0  0  0  0  0  0  0
    3.2114    1.9415    1.5546 C   0  0  0  0  0  0  0  0  0  0  0  0
    3.5975    0.5186    1.0976 C   0  0  1  0  0  0  0  0  0  0  0  0
    3.1682   -0.5273    2.1404 C   0  0  0  0  0  0  0  0  0  0  0  0
    1.6564   -0.7464    2.1749 C   0  0  0  0  0  0  0  0  0  0  0  0
    1.0900   -1.1136    0.7913 C   0  0  1  0  0  0  0  0  0  0  0  0
   -0.3738   -1.1482    0.8928 N   0  0  0  0  0  0  0  0  0  0  0  0
   -1.0793   -1.8629   -0.0895 C   0  0  0  0  0  0  0  0  0  0  0  0
   -0.3832   -2.5152   -1.0494 N   0  0  0  0  0  0  0  0  0  0  0  0
   -1.0655   -3.1845   -2.0079 C   0  0  0  0  0  0  0  0  0  0  0  0
   -2.4440   -3.2404   -2.0764 C   0  0  0  0  0  0  0  0  0  0  0  0
   -3.1660   -2.5635   -1.1054 C   0  0  0  0  0  0  0  0  0  0  0  0
   -2.4746   -1.8658   -0.1099 C   0  0  0  0  0  0  0  0  0  0  0  0
   -3.3768   -0.9703    1.1091 S   0  0  0  0  0  6  0  0  0  0  0  0
   -4.7924   -1.0847    0.8284 O   0  0  0  0  0  0  0  0  0  0  0  0
   -2.8541   -1.3729    2.4015 O   0  0  0  0  0  0  0  0  0  0  0  0
   -2.9240    0.6074    0.8838 N   0  0  0  0  0  0  0  0  0  0  0  0
   -2.8745    1.2545   -0.3615 C   0  0  0  0  0  0  0  0  0  0  0  0
   -3.4461    0.8401   -1.3610 O   0  0  0  0  0  0  0  0  0  0  0  0
   -2.0172    2.5196   -0.3673 C   0  0  0  0  0  0  0  0  0  0  0  0
   -1.3234    2.6875    0.8723 O   0  0  0  0  0  0  0  0  0  0  0  0
   -0.4541    3.8125    0.8307 C   0  0  0  0  0  0  0  0  0  0  0  0
    1.5145   -0.0694   -0.2551 C   0  0  0  0  0  0  0  0  0  0  0  0
    3.0282    0.1325   -0.2759 C   0  0  0  0  0  0  0  0  0  0  0  0
  1  2  1  0
  3  2  1  1
  3  4  1  0
  4  5  1  0
  5  6  1  0
  6  7  1  1
  7  8  1  0
  8  9  2  0
  9 10  1  0
 10 11  2  0
 11 12  1  0
 12 13  2  0
 13 14  1  0
 14 15  2  0
 14 16  2  0
 14 17  1  0
 17 18  1  0
 18 19  2  0
 18 20  1  0
 20 21  1  0
 21 22  1  0
  6 23  1  0
 23 24  1  0
 24  3  1  0
 13  8  1  0
M  END
>  <energy>  (61) 
-88.34

>  <full_id>  (61) 
MOL00001733-000620-03_1

>  <mol_id>  (61) 
MOL00001733-000620-03

>  <act_mol>  (61) 
0

>  <act_conf>  (61) 
0

$$$$
MOL00001586-001582-02
     RDKit          3D

 31 34  0  0  0  0  0  0  0  0999 V2000
   -3.9794   -1.7701    0.2590 C   0  0  0  0  0  0  0  0  0  0  0  0
   -4.1091   -0.3437   -0.2253 C   0  0  0  0  0  0  0  0  0  0  0  0
   -4.8316   -0.0541   -1.4160 C   0  0  0  0  0  0  0  0  0  0  0  0
   -5.5368   -1.1120   -2.2396 C   0  0  0  0  0  0  0  0  0  0  0  0
   -6.8327   -1.4586   -1.6649 N   0  0  0  0  0  0  0  0  0  0  0  0
   -4.9428    1.2767   -1.8476 C   0  0  0  0  0  0  0  0  0  0  0  0
   -4.3473    2.3050   -1.1358 C   0  0  0  0  0  0  0  0  0  0  0  0
   -3.6583    2.0190    0.0380 C   0  0  0  0  0  0  0  0  0  0  0  0
   -3.5343    0.7084    0.5537 C   0  0  0  0  0  0  0  0  0  0  0  0
   -2.7361    0.4797    1.9487 C   0  0  0  0  0  0  0  0  0  0  0  0
   -1.3416    0.0096    1.7217 N   0  0  0  0  0  0  0  0  0  0  0  0
   -0.3431    0.7955    1.1920 C   0  0  0  0  0  0  0  0  0  0  0  0
   -0.3961    1.9920    0.9382 O   0  0  0  0  0  0  0  0  0  0  0  0
    0.9604    0.0208    0.9154 C   0  0  0  0  0  0  0  0  0  0  0  0
    1.0048   -1.1730    1.1733 O   0  0  0  0  0  0  0  0  0  0  0  0
    1.9397    0.8298    0.3821 N   0  0  0  0  0  0  0  0  0  0  0  0
    3.2396    0.4532    0.0095 C   0  0  0  0  0  0  0  0  0  0  0  0
    4.0703    1.4268   -0.5390 C   0  0  0  0  0  0  0  0  0  0  0  0
    5.3714    1.0967   -0.9273 C   0  0  0  0  0  0  0  0  0  0  0  0
    5.8294   -0.2095   -0.7615 C   0  0  0  0  0  0  0  0  0  0  0  0
    7.1880   -0.6446   -1.1322 C   0  0  0  0  0  0  0  0  0  0  0  0
    7.9452   -0.0353   -2.1459 C   0  0  0  0  0  0  0  0  0  0  0  0
    9.2336   -0.4848   -2.4400 C   0  0  0  0  0  0  0  0  0  0  0  0
    9.7430   -1.5436   -1.7106 C   0  0  0  0  0  0  0  0  0  0  0  0
    9.0588   -2.1716   -0.7333 N   0  0  0  0  0  0  0  0  0  0  0  0
    7.8064   -1.7150   -0.4786 C   0  0  0  0  0  0  0  0  0  0  0  0
    5.0332   -1.1646   -0.2215 N   0  0  0  0  0  0  0  0  0  0  0  0
    3.7704   -0.8226    0.1460 C   0  0  0  0  0  0  0  0  0  0  0  0
   -2.8104    1.6311    3.0275 C   0  0  0  0  0  0  0  0  0  0  0  0
   -2.8823    0.5477    4.1163 C   0  0  0  0  0  0  0  0  0  0  0  0
   -3.4617   -0.3909    3.0469 C   0  0  0  0  0  0  0  0  0  0  0  0
  1  2  1  0
  2  3  2  0
  3  4  1  0
  4  5  1  0
  3  6  1  0
  6  7  2  0
  7  8  1  0
  8  9  2  0
  9 10  1  0
 10 11  1  0
 11 12  1  0
 12 13  2  0
 12 14  1  0
 14 15  2  0
 14 16  1  0
 16 17  1  0
 17 18  2  0
 18 19  1  0
 19 20  2  0
 20 21  1  0
 21 22  2  0
 22 23  1  0
 23 24  2  0
 24 25  1  0
 25 26  2  0
 20 27  1  0
 27 28  2  0
 10 29  1  0
 29 30  1  0
 30 31  1  0
  9  2  1  0
 31 10  1  0
 28 17  1  0
 26 21  1  0
M  END
>  <energy>  (62) 
100.25

>  <full_id>  (62) 
MOL00001586-001582-02_1

>  <mol_id>  (62) 
MOL00001586-001582-02

>  <act_mol>  (62) 
0

>  <act_conf>  (62) 
0

$$$$
MOL00001689-000098-04
     RDKit          3D

 24 25  0  0  0  0  0  0  0  0999 V2000
    7.5034   -0.0627    0.0060 C   0  0  0  0  0  0  0  0  0  0  0  0
    6.7224   -0.6192   -1.1838 C   0  0  0  0  0  0  0  0  0  0  0  0
    7.0059   -2.1097   -1.3665 C   0  0  0  0  0  0  0  0  0  0  0  0
    5.2584   -0.3803   -1.0068 C   0  0  0  0  0  0  0  0  0  0  0  0
    4.4623   -0.8718   -0.0815 N   0  0  0  0  0  0  0  0  0  0  0  0
    3.2379   -0.3308   -0.3861 C   0  0  0  0  0  0  0  0  0  0  0  0
    2.0010   -0.6240    0.4230 C   0  0  2  0  0  0  0  0  0  0  0  0
    1.4016   -1.9751    0.0390 C   0  0  0  0  0  0  0  0  0  0  0  0
    1.0414    0.4533    0.2094 N   0  0  0  0  0  0  0  0  0  0  0  0
   -0.0011    0.7060    1.0610 C   0  0  0  0  0  0  0  0  0  0  0  0
   -0.2185    0.0477    2.0721 O   0  0  0  0  0  0  0  0  0  0  0  0
   -0.8473    1.8873    0.6233 C   0  0  0  0  0  0  0  0  0  0  0  0
   -2.0748    2.1196    1.5074 C   0  0  0  0  0  0  0  0  0  0  0  0
   -3.1624    1.0511    1.3519 C   0  0  0  0  0  0  0  0  0  0  0  0
   -3.9240    1.1403    0.0359 C   0  0  0  0  0  0  0  0  0  0  0  0
   -3.6762    2.0174   -0.7921 O   0  0  0  0  0  0  0  0  0  0  0  0
   -4.9281    0.1982   -0.1691 N   0  0  0  0  0  0  0  0  0  0  0  0
   -5.5390    0.1394   -1.4999 C   0  0  0  0  0  0  0  0  0  0  0  0
   -6.9360   -0.4821   -1.4617 C   0  0  0  0  0  0  0  0  0  0  0  0
   -6.9167   -1.7588   -0.8069 O   0  0  0  0  0  0  0  0  0  0  0  0
   -6.4727   -1.6119    0.5481 C   0  0  0  0  0  0  0  0  0  0  0  0
   -5.0535   -1.0384    0.6117 C   0  0  0  0  0  0  0  0  0  0  0  0
    3.2395    0.4779   -1.4614 N   0  0  0  0  0  0  0  0  0  0  0  0
    4.5288    0.4272   -1.8327 N   0  0  0  0  0  0  0  0  0  0  0  0
  2  1  1  0
  2  3  1  0
  2  4  1  0
  4  5  2  0
  5  6  1  0
  6  7  1  0
  7  8  1  6
  7  9  1  0
  9 10  1  0
 10 11  2  0
 10 12  1  0
 12 13  1  0
 13 14  1  0
 14 15  1  0
 15 16  2  0
 15 17  1  0
 17 18  1  0
 18 19  1  0
 19 20  1  0
 20 21  1  0
 21 22  1  0
  6 23  2  0
 23 24  1  0
 24  4  1  0
 22 17  1  0
M  END
>  <energy>  (63) 
30.68

>  <full_id>  (63) 
MOL00001689-000098-04_1

>  <mol_id>  (63) 
MOL00001689-000098-04

>  <act_mol>  (63) 
0

>  <act_conf>  (63) 
0

$$$$
MOL00001694-001094-03
     RDKit          3D

 28 30  0  0  0  0  0  0  0  0999 V2000
    7.6766   -1.6802   -0.3844 C   0  0  0  0  0  0  0  0  0  0  0  0
    7.0565   -0.5965    0.4574 C   0  0  0  0  0  0  0  0  0  0  0  0
    6.5998   -0.8368    1.5749 O   0  0  0  0  0  0  0  0  0  0  0  0
    7.0668    0.8034   -0.1288 C   0  0  0  0  0  0  0  0  0  0  0  0
    6.1480    1.7893    0.5963 C   0  0  0  0  0  0  0  0  0  0  0  0
    4.6694    1.4051    0.6696 C   0  0  0  0  0  0  0  0  0  0  0  0
    3.9108    1.1825   -0.9258 S   0  0  0  0  0  6  0  0  0  0  0  0
    4.0252    2.4261   -1.6635 O   0  0  0  0  0  0  0  0  0  0  0  0
    4.3919   -0.0622   -1.4976 O   0  0  0  0  0  0  0  0  0  0  0  0
    2.1950    0.9465   -0.5273 C   0  0  0  0  0  0  0  0  0  0  0  0
    1.3194    2.0266   -0.5641 C   0  0  0  0  0  0  0  0  0  0  0  0
   -0.0295    1.8293   -0.2552 C   0  0  0  0  0  0  0  0  0  0  0  0
   -0.5185    0.5599    0.0847 C   0  0  0  0  0  0  0  0  0  0  0  0
   -1.8793    0.3302    0.3950 N   0  0  0  0  0  0  0  0  0  0  0  0
   -2.8912    1.2559    0.5523 C   0  0  0  0  0  0  0  0  0  0  0  0
   -2.7459    2.4732    0.5324 O   0  0  0  0  0  0  0  0  0  0  0  0
   -4.1967    0.6852    0.8074 C   0  0  0  0  0  0  0  0  0  0  0  0
   -5.2145    1.4854    1.2715 N   0  0  0  0  0  0  0  0  0  0  0  0
   -6.3701    0.8407    1.5030 N   0  0  0  0  0  0  0  0  0  0  0  0
   -6.1038   -0.4099    1.1323 C   0  0  0  0  0  0  0  0  0  0  0  0
   -4.7704   -0.5701    0.6746 C   0  0  0  0  0  0  0  0  0  0  0  0
   -4.2534   -1.8783    0.1823 C   0  0  0  0  0  0  0  0  0  0  0  0
   -5.3986   -2.8594   -0.1281 C   0  0  0  0  0  0  0  0  0  0  0  0
   -6.4650   -2.8719    0.9795 C   0  0  0  0  0  0  0  0  0  0  0  0
   -7.1244   -1.4938    1.1550 C   0  0  0  0  0  0  0  0  0  0  0  0
    0.3743   -0.5378    0.0972 C   0  0  0  0  0  0  0  0  0  0  0  0
   -0.0713   -1.9377    0.4312 C   0  0  0  0  0  0  0  0  0  0  0  0
    1.7310   -0.3318   -0.2134 C   0  0  0  0  0  0  0  0  0  0  0  0
  1  2  1  0
  2  3  2  0
  2  4  1  0
  4  5  1  0
  5  6  1  0
  7  6  1  0
  7  8  2  0
  7  9  2  0
  7 10  1  0
 10 11  2  0
 11 12  1  0
 12 13  2  0
 13 14  1  0
 14 15  1  0
 15 16  2  0
 15 17  1  0
 17 18  1  0
 18 19  1  0
 19 20  2  0
 20 21  1  0
 21 22  1  0
 22 23  1  0
 23 24  1  0
 24 25  1  0
 13 26  1  0
 26 27  1  0
 26 28  2  0
 28 10  1  0
 21 17  2  0
 25 20  1  0
M  END
>  <energy>  (64) 
19.45

>  <full_id>  (64) 
MOL00001694-001094-03_1

>  <mol_id>  (64) 
MOL00001694-001094-03

>  <act_mol>  (64) 
0

>  <act_conf>  (64) 
0

$$$$
MOL00001623-000122-03
     RDKit          3D

 27 28  0  0  0  0  0  0  0  0999 V2000
   -3.5796   -1.9172    2.9961 C   0  0  0  0  0  0  0  0  0  0  0  0
   -4.4538   -1.2958    1.9157 C   0  0  0  0  0  0  0  0  0  0  0  0
   -3.6453   -0.4628    0.8902 C   0  0  0  0  0  0  0  0  0  0  0  0
   -2.8569    0.7036    1.5227 C   0  0  0  0  0  0  0  0  0  0  0  0
   -3.7475    1.6876    2.2681 C   0  0  0  0  0  0  0  0  0  0  0  0
   -2.8493   -1.3868   -0.1078 C   0  0  2  0  0  0  0  0  0  0  0  0
   -1.5842   -0.8378   -0.6279 N   0  0  0  0  0  0  0  0  0  0  0  0
   -0.3671   -1.0604   -0.0207 C   0  0  0  0  0  0  0  0  0  0  0  0
   -0.1623   -1.7284    0.9835 O   0  0  0  0  0  0  0  0  0  0  0  0
    0.8110   -0.3520   -0.7181 C   0  0  0  0  0  0  0  0  0  0  0  0
    0.5873    0.2879   -1.7351 O   0  0  0  0  0  0  0  0  0  0  0  0
    1.9971   -0.5528   -0.0461 N   0  0  0  0  0  0  0  0  0  0  0  0
    3.2747   -0.0478   -0.3656 C   0  0  0  0  0  0  0  0  0  0  0  0
    3.5085    0.7573   -1.4801 C   0  0  0  0  0  0  0  0  0  0  0  0
    4.7906    1.2381   -1.7437 C   0  0  0  0  0  0  0  0  0  0  0  0
    5.8238    0.9078   -0.8781 C   0  0  0  0  0  0  0  0  0  0  0  0
    7.2239    1.3902   -1.1330 C   0  0  0  0  0  0  0  0  0  0  0  0
    7.9742    0.4280   -2.0215 C   0  0  0  0  0  0  0  0  0  0  0  0
    8.4684   -0.6813   -1.3929 N   0  0  0  0  0  0  0  0  0  0  0  0
    8.1413    0.6048   -3.2241 O   0  0  0  0  0  0  0  0  0  0  0  0
    5.6349    0.1133    0.2036 N   0  0  0  0  0  0  0  0  0  0  0  0
    4.3779   -0.3471    0.4522 C   0  0  0  0  0  0  0  0  0  0  0  0
    4.2489   -1.2065    1.6782 C   0  0  0  0  0  0  0  0  0  0  0  0
   -4.0228   -1.2604   -1.1003 C   0  0  0  0  0  0  0  0  0  0  0  0
   -4.4894    0.0044   -0.3531 C   0  0  1  0  0  0  0  0  0  0  0  0
   -5.9107    0.1428   -0.1394 O   0  0  0  0  0  0  0  0  0  0  0  0
   -6.6709    0.5485   -1.2685 C   0  0  0  0  0  0  0  0  0  0  0  0
  1  2  1  0
  3  2  1  0
  3  4  1  0
  4  5  1  0
  3  6  1  0
  6  7  1  6
  7  8  1  0
  8  9  2  0
  8 10  1  0
 10 11  2  0
 10 12  1  0
 12 13  1  0
 13 14  2  0
 14 15  1  0
 15 16  2  0
 16 17  1  0
 17 18  1  0
 18 19  1  0
 18 20  2  0
 16 21  1  0
 21 22  2  0
 22 23  1  0
  6 24  1  0
 24 25  1  0
 25 26  1  1
 26 27  1  0
 25  3  1  0
 22 13  1  0
M  END
>  <energy>  (65) 
54.96

>  <full_id>  (65) 
MOL00001623-000122-03_1

>  <mol_id>  (65) 
MOL00001623-000122-03

>  <act_mol>  (65) 
0

>  <act_conf>  (65) 
0

$$$$
MOL00001853-000428-02
     RDKit          3D

 25 27  0  0  0  0  0  0  0  0999 V2000
   -5.6190    0.6122   -1.2784 C   0  0  0  0  0  0  0  0  0  0  0  0
   -4.4984   -0.3041   -1.3404 N   0  0  0  0  0  0  0  0  0  0  0  0
   -4.3684   -1.2869   -2.2884 C   0  0  0  0  0  0  0  0  0  0  0  0
   -3.1994   -1.9635   -2.0434 C   0  0  0  0  0  0  0  0  0  0  0  0
   -2.6057   -1.3682   -0.9060 C   0  0  0  0  0  0  0  0  0  0  0  0
   -3.4236   -0.3315   -0.4651 C   0  0  0  0  0  0  0  0  0  0  0  0
   -3.2525    0.5864    0.6519 C   0  0  0  0  0  0  0  0  0  0  0  0
   -3.9540    1.5795    0.8282 O   0  0  0  0  0  0  0  0  0  0  0  0
   -2.2228    0.2772    1.5125 N   0  0  0  0  0  0  0  0  0  0  0  0
   -1.8050    1.1808    2.5672 C   0  0  0  0  0  0  0  0  0  0  0  0
   -0.9277    2.3289    2.0519 C   0  0  0  0  0  0  0  0  0  0  0  0
    0.3573    1.8352    1.4265 C   0  0  0  0  0  0  0  0  0  0  0  0
    1.4529    1.4854    2.2269 C   0  0  0  0  0  0  0  0  0  0  0  0
    2.6152    0.9659    1.6489 C   0  0  0  0  0  0  0  0  0  0  0  0
    2.7096    0.8075    0.2636 C   0  0  0  0  0  0  0  0  0  0  0  0
    3.8856    0.1546   -0.2437 N   0  0  0  0  0  0  0  0  0  0  0  0
    4.5016    0.6236   -1.5050 C   0  0  0  0  0  0  0  0  0  0  0  0
    5.5613   -0.4276   -1.8302 C   0  0  0  0  0  0  0  0  0  0  0  0
    4.8738   -1.7726   -1.6555 C   0  0  0  0  0  0  0  0  0  0  0  0
    3.8073   -1.5671   -0.2357 S   0  0  0  0  0  6  0  0  0  0  0  0
    4.4790   -2.0371    0.9554 O   0  0  0  0  0  0  0  0  0  0  0  0
    2.4749   -2.0006   -0.5955 O   0  0  0  0  0  0  0  0  0  0  0  0
    1.6057    1.1375   -0.5292 C   0  0  0  0  0  0  0  0  0  0  0  0
    1.6276    0.9434   -1.8561 F   0  0  0  0  0  0  0  0  0  0  0  0
    0.4454    1.6582    0.0393 C   0  0  0  0  0  0  0  0  0  0  0  0
  1  2  1  0
  2  3  1  0
  3  4  2  0
  4  5  1  0
  5  6  2  0
  6  7  1  0
  7  8  2  0
  7  9  1  0
  9 10  1  0
 10 11  1  0
 11 12  1  0
 12 13  2  0
 13 14  1  0
 14 15  2  0
 15 16  1  0
 16 17  1  0
 17 18  1  0
 18 19  1  0
 20 19  1  0
 20 21  2  0
 20 22  2  0
 15 23  1  0
 23 24  1  0
 23 25  2  0
  6  2  1  0
 25 12  1  0
 20 16  1  0
M  END
>  <energy>  (66) 
-26.69

>  <full_id>  (66) 
MOL00001853-000428-02_1

>  <mol_id>  (66) 
MOL00001853-000428-02

>  <act_mol>  (66) 
0

>  <act_conf>  (66) 
0

$$$$
MOL00001957-000282-02
     RDKit          3D

 23 24  0  0  0  0  0  0  0  0999 V2000
    5.0824    2.1876    0.1947 C   0  0  0  0  0  0  0  0  0  0  0  0
    5.2307    0.5827   -0.5447 S   0  0  0  0  0  6  0  0  0  0  0  0
    5.9295   -0.3078    0.3572 O   0  0  0  0  0  0  0  0  0  0  0  0
    5.6308    0.7473   -1.9277 O   0  0  0  0  0  0  0  0  0  0  0  0
    3.5665   -0.0355   -0.6424 C   0  0  0  0  0  0  0  0  0  0  0  0
    2.8051   -0.4509   -1.7120 C   0  0  0  0  0  0  0  0  0  0  0  0
    1.4978   -0.8931   -1.3201 C   0  0  0  0  0  0  0  0  0  0  0  0
    0.5094   -1.3759   -2.2634 N   0  0  0  0  0  4  0  0  0  0  0  0
    0.8758   -1.4913   -3.4399 O   0  0  0  0  0  0  0  0  0  0  0  0
   -0.6296   -1.6164   -1.8398 O   0  0  0  0  0  1  0  0  0  0  0  0
    1.2922   -0.8004    0.0557 C   0  0  0  0  0  0  0  0  0  0  0  0
    0.1689   -1.1588    0.7515 N   0  0  0  0  0  0  0  0  0  0  0  0
   -0.1494   -0.7008    2.1196 C   0  0  2  0  0  0  0  0  0  0  0  0
   -1.0725   -1.7492    2.7760 C   0  0  0  0  0  0  0  0  0  0  0  0
   -0.3925   -3.0041    2.8600 O   0  0  0  0  0  0  0  0  0  0  0  0
   -0.7546    0.7181    2.1353 C   0  0  0  0  0  0  0  0  0  0  0  0
   -2.0997    0.8675    1.4620 C   0  0  0  0  0  0  0  0  0  0  0  0
   -2.1871    1.0719    0.0785 C   0  0  0  0  0  0  0  0  0  0  0  0
   -3.4303    1.1875   -0.5445 C   0  0  0  0  0  0  0  0  0  0  0  0
   -4.5989    1.1084    0.2094 C   0  0  0  0  0  0  0  0  0  0  0  0
   -4.5252    0.9163    1.5872 C   0  0  0  0  0  0  0  0  0  0  0  0
   -3.2826    0.7976    2.2117 C   0  0  0  0  0  0  0  0  0  0  0  0
    2.7139   -0.1867    0.8198 S   0  0  0  0  0  0  0  0  0  0  0  0
  2  1  1  0
  2  3  2  0
  2  4  2  0
  2  5  1  0
  5  6  2  0
  6  7  1  0
  7  8  1  0
  8  9  2  0
  8 10  1  0
  7 11  2  0
 11 12  1  0
 12 13  1  0
 13 14  1  6
 14 15  1  0
 13 16  1  0
 16 17  1  0
 17 18  2  0
 18 19  1  0
 19 20  2  0
 20 21  1  0
 21 22  2  0
 11 23  1  0
 23  5  1  0
 22 17  1  0
M  CHG  2   8   1  10  -1
M  END
>  <energy>  (67) 
104.85

>  <full_id>  (67) 
MOL00001957-000282-02_1

>  <mol_id>  (67) 
MOL00001957-000282-02

>  <act_mol>  (67) 
0

>  <act_conf>  (67) 
0

$$$$
MOL00001812-001526-03
     RDKit          3D

 30 34  0  0  0  0  0  0  0  0999 V2000
   -2.1635   -4.5783   -4.1823 C   0  0  0  0  0  0  0  0  0  0  0  0
   -1.2029   -4.0817   -3.2128 N   0  0  0  0  0  0  0  0  0  0  0  0
   -1.6368   -3.2072   -2.2097 C   0  0  0  0  0  0  0  0  0  0  0  0
   -2.7892   -2.4230   -2.3048 C   0  0  0  0  0  0  0  0  0  0  0  0
   -3.1303   -1.5076   -1.2981 C   0  0  0  0  0  0  0  0  0  0  0  0
   -2.3089   -1.3179   -0.1793 C   0  0  0  0  0  0  0  0  0  0  0  0
   -2.6941   -0.3241    0.8309 C   0  0  0  0  0  0  0  0  0  0  0  0
   -3.9286    0.1079    1.0542 N   0  0  0  0  0  0  0  0  0  0  0  0
   -3.8898    1.0928    2.0140 N   0  0  0  0  0  0  0  0  0  0  0  0
   -2.6330    1.2626    2.3519 C   0  0  0  0  0  0  0  0  0  0  0  0
   -1.9985    2.1547    3.2344 C   0  0  0  0  0  0  0  0  0  0  0  0
   -0.6643    2.1287    3.3399 C   0  0  0  0  0  0  0  0  0  0  0  0
    0.1208    1.1302    2.5305 C   0  0  0  0  0  0  0  0  0  0  0  0
    1.5136    1.0870    2.5877 N   0  0  0  0  0  0  0  0  0  0  0  0
    2.3192    2.0677    3.2974 C   0  0  0  0  0  0  0  0  0  0  0  0
    2.2278   -0.1405    2.1772 C   0  0  0  0  0  0  0  0  0  0  0  0
    2.3819   -0.2756    0.6870 C   0  0  0  0  0  0  0  0  0  0  0  0
    2.0302    0.6147   -0.2645 C   0  0  0  0  0  0  0  0  0  0  0  0
    2.1509    0.2733   -1.6513 C   0  0  0  0  0  0  0  0  0  0  0  0
    2.6217   -0.9168   -2.0218 C   0  0  0  0  0  0  0  0  0  0  0  0
    3.0245   -1.8351   -1.1017 N   0  0  0  0  0  0  0  0  0  0  0  0
    2.9485   -1.6059    0.2554 C   0  0  0  0  0  0  0  0  0  0  0  0
    3.3204   -2.4444    1.0714 O   0  0  0  0  0  0  0  0  0  0  0  0
    2.6176   -1.1181   -3.4917 C   0  0  0  0  0  0  0  0  0  0  0  0
    2.3367    0.3054   -3.9969 C   0  0  0  0  0  0  0  0  0  0  0  0
    1.7302    1.0894   -2.8210 C   0  0  0  0  0  0  0  0  0  0  0  0
   -0.4781    0.2746    1.7399 N   0  0  0  0  0  0  0  0  0  0  0  0
   -1.8350    0.3792    1.6607 N   0  0  0  0  0  0  0  0  0  0  0  0
   -1.1437   -2.0853   -0.0931 C   0  0  0  0  0  0  0  0  0  0  0  0
   -0.8069   -2.9988   -1.1015 C   0  0  0  0  0  0  0  0  0  0  0  0
  1  2  1  0
  2  3  1  0
  3  4  2  0
  4  5  1  0
  5  6  2  0
  6  7  1  0
  7  8  2  0
  8  9  1  0
  9 10  2  0
 10 11  1  0
 11 12  2  0
 12 13  1  0
 13 14  1  0
 14 15  1  0
 14 16  1  0
 16 17  1  0
 17 18  2  0
 18 19  1  0
 19 20  2  0
 20 21  1  0
 21 22  1  0
 22 23  2  0
 20 24  1  0
 24 25  1  0
 25 26  1  0
 13 27  2  0
 27 28  1  0
  6 29  1  0
 29 30  2  0
 30  3  1  0
 28  7  1  0
 28 10  1  0
 22 17  1  0
 26 19  1  0
M  END
>  <energy>  (68) 
7.98

>  <full_id>  (68) 
MOL00001812-001526-03_1

>  <mol_id>  (68) 
MOL00001812-001526-03

>  <act_mol>  (68) 
0

>  <act_conf>  (68) 
0

$$$$
MOL00001980-001233-02
     RDKit          3D

 27 30  0  0  0  0  0  0  0  0999 V2000
   -6.1703    1.5074   -1.5643 C   0  0  0  0  0  0  0  0  0  0  0  0
   -4.8930    0.7715   -1.4953 C   0  0  0  0  0  0  0  0  0  0  0  0
   -3.8502    1.0628   -2.2809 N   0  0  0  0  0  0  0  0  0  0  0  0
   -2.9440    0.1621   -1.8676 N   0  0  0  0  0  0  0  0  0  0  0  0
   -3.4468   -0.6349   -0.8748 C   0  0  0  0  0  0  0  0  0  0  0  0
   -2.6259   -1.7286   -0.2557 C   0  0  2  0  0  0  0  0  0  0  0  0
   -3.4787   -2.7755    0.4791 C   0  0  0  0  0  0  0  0  0  0  0  0
   -3.9870   -2.2982    1.8390 C   0  0  0  0  0  0  0  0  0  0  0  0
   -2.8416   -1.7503    2.6808 C   0  0  0  0  0  0  0  0  0  0  0  0
   -2.0710   -0.6720    1.9294 C   0  0  0  0  0  0  0  0  0  0  0  0
   -1.5926   -1.1569    0.6272 N   0  0  0  0  0  0  0  0  0  0  0  0
   -0.4416   -0.6588    0.0092 C   0  0  0  0  0  0  0  0  0  0  0  0
   -0.3517   -0.6107   -1.2173 O   0  0  0  0  0  0  0  0  0  0  0  0
    0.5441   -0.2689    0.8838 N   0  0  0  0  0  0  0  0  0  0  0  0
    1.7389    0.4138    0.5788 C   0  0  0  0  0  0  0  0  0  0  0  0
    1.9806    1.0464   -0.6410 C   0  0  0  0  0  0  0  0  0  0  0  0
    3.1884    1.7161   -0.8698 C   0  0  0  0  0  0  0  0  0  0  0  0
    4.1749    1.7692    0.1227 C   0  0  0  0  0  0  0  0  0  0  0  0
    5.4785    2.4861   -0.1266 C   0  0  0  0  0  0  0  0  0  0  0  0
    6.6003    1.5734   -0.1200 N   0  0  0  0  0  0  0  0  0  0  0  0
    6.9209    0.6139   -1.0264 C   0  0  0  0  0  0  0  0  0  0  0  0
    8.0461    0.0503   -0.6511 N   0  0  0  0  0  0  0  0  0  0  0  0
    8.4164    0.6864    0.5113 N   0  0  0  0  0  0  0  0  0  0  0  0
    7.5380    1.6244    0.8410 N   0  0  0  0  0  0  0  0  0  0  0  0
    3.9224    1.1499    1.3541 C   0  0  0  0  0  0  0  0  0  0  0  0
    2.7156    0.4804    1.5782 C   0  0  0  0  0  0  0  0  0  0  0  0
   -4.6833   -0.2592   -0.6157 N   0  0  0  0  0  0  0  0  0  0  0  0
  1  2  1  0
  2  3  2  0
  3  4  1  0
  4  5  1  0
  6  5  1  1
  6  7  1  0
  7  8  1  0
  8  9  1  0
  9 10  1  0
 10 11  1  0
 11 12  1  0
 12 13  2  0
 12 14  1  0
 14 15  1  0
 15 16  2  0
 16 17  1  0
 17 18  2  0
 18 19  1  0
 19 20  1  0
 20 21  1  0
 21 22  2  0
 22 23  1  0
 23 24  2  0
 18 25  1  0
 25 26  2  0
  5 27  2  0
 27  2  1  0
 11  6  1  0
 26 15  1  0
 24 20  1  0
M  END
>  <energy>  (69) 
-35.43

>  <full_id>  (69) 
MOL00001980-001233-02_1

>  <mol_id>  (69) 
MOL00001980-001233-02

>  <act_mol>  (69) 
0

>  <act_conf>  (69) 
0

$$$$
MOL00001884-000606-03
     RDKit          3D

 29 30  0  0  0  0  0  0  0  0999 V2000
   -3.5489   -0.4680   -4.8425 C   0  0  0  0  0  0  0  0  0  0  0  0
   -3.0924   -0.8616   -3.4626 C   0  0  0  0  0  0  0  0  0  0  0  0
   -2.0733   -0.3819   -2.9601 O   0  0  0  0  0  0  0  0  0  0  0  0
   -3.9488   -1.8781   -2.7293 C   0  0  0  0  0  0  0  0  0  0  0  0
   -3.4532   -2.1512   -1.3063 C   0  0  0  0  0  0  0  0  0  0  0  0
   -3.5904   -0.9282   -0.3786 C   0  0  1  0  0  0  0  0  0  0  0  0
   -4.6965   -1.1064    0.5601 N   0  0  0  0  0  0  0  0  0  0  0  0
   -5.9652   -0.7514    0.2308 C   0  0  0  0  0  0  0  0  0  0  0  0
   -6.8183   -0.8541    1.2777 N   0  0  0  0  0  0  0  0  0  0  0  0
   -6.3346   -0.3855   -0.8740 O   0  0  0  0  0  0  0  0  0  0  0  0
   -2.2994   -0.6845    0.4402 C   0  0  0  0  0  0  0  0  0  0  0  0
   -2.2994   -0.8152    1.6644 O   0  0  0  0  0  0  0  0  0  0  0  0
   -1.2243   -0.3063   -0.3449 N   0  0  0  0  0  0  0  0  0  0  0  0
    0.0856   -0.0001    0.0692 C   0  0  0  0  0  0  0  0  0  0  0  0
    0.9957    0.3792   -0.9188 C   0  0  0  0  0  0  0  0  0  0  0  0
    2.3385    0.7160   -0.6229 C   0  0  0  0  0  0  0  0  0  0  0  0
    3.1403    1.2281   -1.7890 C   0  0  0  0  0  0  0  0  0  0  0  0
    2.8007    0.6054    0.7074 C   0  0  0  0  0  0  0  0  0  0  0  0
    1.8531    0.2846    1.7072 C   0  0  0  0  0  0  0  0  0  0  0  0
    0.5204   -0.0323    1.3848 C   0  0  0  0  0  0  0  0  0  0  0  0
    2.2716    0.2105    3.1509 C   0  0  0  0  0  0  0  0  0  0  0  0
    3.3327    1.2527    3.4097 C   0  0  0  0  0  0  0  0  0  0  0  0
    4.4880    1.0092    2.4786 C   0  0  0  0  0  0  0  0  0  0  0  0
    5.6473    1.0680    2.8905 O   0  0  0  0  0  0  0  0  0  0  0  0
    4.1642    0.7878    1.1334 N   0  0  0  0  0  0  0  0  0  0  0  0
    5.2921    0.4460    0.2632 C   0  0  0  0  0  0  0  0  0  0  0  0
    6.1971    1.6382   -0.0581 C   0  0  0  0  0  0  0  0  0  0  0  0
    7.1202    1.2947   -1.1445 C   0  0  0  0  0  0  0  0  0  0  0  0
    7.8319    1.0180   -2.0181 N   0  0  0  0  0  0  0  0  0  0  0  0
  1  2  1  0
  2  3  2  0
  2  4  1  0
  4  5  1  0
  6  5  1  1
  6  7  1  0
  7  8  1  0
  8  9  1  0
  8 10  2  0
  6 11  1  0
 11 12  2  0
 11 13  1  0
 13 14  1  0
 14 15  2  0
 15 16  1  0
 16 17  1  0
 16 18  2  0
 18 19  1  0
 19 20  2  0
 19 21  1  0
 21 22  1  0
 22 23  1  0
 23 24  2  0
 23 25  1  0
 25 26  1  0
 26 27  1  0
 27 28  1  0
 28 29  3  0
 20 14  1  0
 25 18  1  0
M  END
>  <energy>  (70) 
-97.34

>  <full_id>  (70) 
MOL00001884-000606-03_1

>  <mol_id>  (70) 
MOL00001884-000606-03

>  <act_mol>  (70) 
0

>  <act_conf>  (70) 
0

$$$$
MOL00001988-001237-03
     RDKit          3D

 29 31  0  0  0  0  0  0  0  0999 V2000
    5.0385   -3.7510   -1.5472 C   0  0  0  0  0  0  0  0  0  0  0  0
    5.3327   -2.2582   -1.5248 C   0  0  0  0  0  0  0  0  0  0  0  0
    4.8091   -1.5194   -0.2790 C   0  0  1  0  0  0  0  0  0  0  0  0
    5.4540   -2.0261    1.0125 C   0  0  0  0  0  0  0  0  0  0  0  0
    5.1596   -0.1148   -0.4244 O   0  0  0  0  0  0  0  0  0  0  0  0
    3.9331    0.4729   -0.4077 C   0  0  0  0  0  0  0  0  0  0  0  0
    3.6773    1.8234   -0.5124 C   0  0  0  0  0  0  0  0  0  0  0  0
    2.3404    2.2500   -0.4758 C   0  0  0  0  0  0  0  0  0  0  0  0
    1.2945    1.3224   -0.3326 C   0  0  0  0  0  0  0  0  0  0  0  0
   -0.0750    1.6602   -0.3059 N   0  0  0  0  0  0  0  0  0  0  0  0
   -0.6499    2.9068   -0.2204 C   0  0  0  0  0  0  0  0  0  0  0  0
   -0.0142    3.9527   -0.1151 O   0  0  0  0  0  0  0  0  0  0  0  0
   -2.0501    2.9042   -0.2503 N   0  0  0  0  0  0  0  0  0  0  0  0
   -2.7435    4.1744   -0.0989 C   0  0  0  0  0  0  0  0  0  0  0  0
   -2.8832    1.7381   -0.5571 C   0  0  0  0  0  0  0  0  0  0  0  0
   -3.1221    0.8553    0.6716 C   0  0  1  0  0  0  0  0  0  0  0  0
   -4.3318    1.2616    1.5085 C   0  0  0  0  0  0  0  0  0  0  0  0
   -4.5760    0.0366    2.3802 C   0  0  0  0  0  0  0  0  0  0  0  0
   -4.1300   -1.1653    1.5444 C   0  0  0  0  0  0  0  0  0  0  0  0
   -3.4609   -0.5915    0.2927 C   0  0  2  0  0  0  0  0  0  0  0  0
   -2.2305   -1.3053   -0.0435 N   0  0  0  0  0  0  0  0  0  0  0  0
   -2.2819   -2.7284   -0.9221 S   0  0  0  0  0  6  0  0  0  0  0  0
   -2.2525   -2.1131   -2.5914 C   0  0  0  0  0  0  0  0  0  0  0  0
   -3.5507   -3.3734   -0.6771 O   0  0  0  0  0  0  0  0  0  0  0  0
   -1.0219   -3.3945   -0.6687 O   0  0  0  0  0  0  0  0  0  0  0  0
    1.6027   -0.0430   -0.2260 C   0  0  0  0  0  0  0  0  0  0  0  0
    0.5995   -0.9600   -0.0687 O   0  0  0  0  0  0  0  0  0  0  0  0
    2.9208   -0.4404   -0.2684 C   0  0  0  0  0  0  0  0  0  0  0  0
    3.3740   -1.7202   -0.1775 O   0  0  0  0  0  0  0  0  0  0  0  0
  1  2  1  0
  2  3  1  0
  3  4  1  1
  3  5  1  0
  5  6  1  0
  6  7  2  0
  7  8  1  0
  8  9  2  0
  9 10  1  0
 10 11  1  0
 11 12  2  0
 11 13  1  0
 13 14  1  0
 13 15  1  0
 16 15  1  6
 16 17  1  0
 17 18  1  0
 18 19  1  0
 19 20  1  0
 20 21  1  1
 21 22  1  0
 22 23  1  0
 22 24  2  0
 22 25  2  0
  9 26  1  0
 26 27  1  0
 26 28  2  0
 28 29  1  0
 29  3  1  0
 28  6  1  0
 20 16  1  0
M  END
>  <energy>  (71) 
-93.10

>  <full_id>  (71) 
MOL00001988-001237-03_1

>  <mol_id>  (71) 
MOL00001988-001237-03

>  <act_mol>  (71) 
0

>  <act_conf>  (71) 
0

$$$$
MOL00002394-001218-03
     RDKit          3D

 21 22  0  0  0  0  0  0  0  0999 V2000
    7.1291   -0.8099    0.8901 C   0  0  0  0  0  0  0  0  0  0  0  0
    6.0509   -0.1696    0.0380 C   0  0  0  0  0  0  0  0  0  0  0  0
    5.6642   -1.1030   -0.9692 O   0  0  0  0  0  0  0  0  0  0  0  0
    4.6401   -0.5943   -1.8263 C   0  0  0  0  0  0  0  0  0  0  0  0
    3.2735   -0.6832   -1.1934 C   0  0  0  0  0  0  0  0  0  0  0  0
    2.8610   -1.8482   -0.5401 C   0  0  0  0  0  0  0  0  0  0  0  0
    1.5847   -1.9309    0.0268 C   0  0  0  0  0  0  0  0  0  0  0  0
    0.6791   -0.8608   -0.0455 C   0  0  0  0  0  0  0  0  0  0  0  0
   -0.5811   -1.0126    0.5401 N   0  0  0  0  0  0  0  0  0  0  0  0
   -1.7063   -0.2027    0.6569 C   0  0  0  0  0  0  0  0  0  0  0  0
   -2.7249   -0.7557    1.3375 N   0  0  0  0  0  0  0  0  0  0  0  0
   -3.8633   -0.0406    1.5009 C   0  0  0  0  0  0  0  0  0  0  0  0
   -4.9539   -0.7271    2.2700 C   0  0  0  0  0  0  0  0  0  0  0  0
   -4.0089    1.2396    1.0001 C   0  0  0  0  0  0  0  0  0  0  0  0
   -5.2519    2.0674    1.1373 C   0  0  0  0  0  0  0  0  0  0  0  0
   -6.1814    1.9063   -0.0571 C   0  0  0  0  0  0  0  0  0  0  0  0
   -2.9031    1.6911    0.3173 C   0  0  0  0  0  0  0  0  0  0  0  0
   -2.8929    2.9247   -0.2541 O   0  0  0  0  0  0  0  0  0  0  0  0
   -1.7617    1.0231    0.1289 N   0  0  0  0  0  0  0  0  0  0  0  0
    1.0979    0.2935   -0.7121 C   0  0  0  0  0  0  0  0  0  0  0  0
    2.3751    0.3843   -1.2820 C   0  0  0  0  0  0  0  0  0  0  0  0
  1  2  1  0
  2  3  1  0
  3  4  1  0
  4  5  1  0
  5  6  2  0
  6  7  1  0
  7  8  2  0
  8  9  1  0
  9 10  1  0
 10 11  2  0
 11 12  1  0
 12 13  1  0
 12 14  2  0
 14 15  1  0
 15 16  1  0
 14 17  1  0
 17 18  1  0
 17 19  2  0
  8 20  1  0
 20 21  2  0
 21  5  1  0
 19 10  1  0
M  END
>  <energy>  (72) 
-73.48

>  <full_id>  (72) 
MOL00002394-001218-03_1

>  <mol_id>  (72) 
MOL00002394-001218-03

>  <act_mol>  (72) 
0

>  <act_conf>  (72) 
0

$$$$
MOL00002332-000125-02
     RDKit          3D

 21 23  0  0  0  0  0  0  0  0999 V2000
   -5.4496   -0.6028    2.0554 C   0  0  0  0  0  0  0  0  0  0  0  0
   -3.9424   -0.7760    1.9034 C   0  0  0  0  0  0  0  0  0  0  0  0
   -3.5147   -0.8819    0.4998 N   0  0  0  0  0  0  0  0  0  0  0  0
   -3.7042    0.3941   -0.2378 C   0  0  0  0  0  0  0  0  0  0  0  0
   -3.1778    0.3079   -1.6863 C   0  0  0  0  0  0  0  0  0  0  0  0
   -1.7745   -0.1021   -1.7038 N   0  0  0  0  0  0  0  0  0  0  0  0
   -0.8227    0.9085   -1.6892 C   0  0  0  0  0  0  0  0  0  0  0  0
   -1.1021    2.1035   -1.6713 O   0  0  0  0  0  0  0  0  0  0  0  0
    0.4757    0.4578   -1.7024 N   0  0  0  0  0  0  0  0  0  0  0  0
    1.6145    1.4053   -1.7215 C   0  0  1  0  0  0  0  0  0  0  0  0
    1.8777    2.1189   -0.3729 C   0  0  0  0  0  0  0  0  0  0  0  0
    2.8512    0.9683   -0.0129 C   0  0  2  0  0  0  0  0  0  0  0  0
    4.0994    1.3790    0.7477 C   0  0  0  0  0  0  0  0  0  0  0  0
    5.0118    0.2682    0.9368 N   0  0  0  0  0  0  0  0  0  0  0  0
    5.1389   -0.5280    2.0311 C   0  0  0  0  0  0  0  0  0  0  0  0
    6.0698   -1.4278    1.8114 N   0  0  0  0  0  0  0  0  0  0  0  0
    6.4913   -1.1286    0.5465 C   0  0  0  0  0  0  0  0  0  0  0  0
    5.8697   -0.0976   -0.0323 N   0  0  0  0  0  0  0  0  0  0  0  0
    2.9880    0.7170   -1.5389 C   0  0  0  0  0  0  0  0  0  0  0  0
   -1.5686   -1.3810   -1.0166 C   0  0  0  0  0  0  0  0  0  0  0  0
   -2.0908   -1.2957    0.4346 C   0  0  0  0  0  0  0  0  0  0  0  0
  1  2  1  0
  2  3  1  0
  3  4  1  0
  4  5  1  0
  5  6  1  0
  6  7  1  0
  7  8  2  0
  7  9  1  0
 10  9  1  1
 10 11  1  0
 11 12  1  0
 12 13  1  6
 13 14  1  0
 14 15  1  0
 15 16  2  0
 16 17  1  0
 17 18  2  0
 12 19  1  0
  6 20  1  0
 20 21  1  0
 21  3  1  0
 19 10  1  0
 18 14  1  0
M  END
>  <energy>  (73) 
-2.82

>  <full_id>  (73) 
MOL00002332-000125-02_1

>  <mol_id>  (73) 
MOL00002332-000125-02

>  <act_mol>  (73) 
0

>  <act_conf>  (73) 
0

$$$$
MOL00002441-000514-04
     RDKit          3D

 26 27  0  0  0  0  0  0  0  0999 V2000
    4.1763   -3.3877   -2.1027 C   0  0  0  0  0  0  0  0  0  0  0  0
    4.2864   -3.0759   -0.6329 C   0  0  0  0  0  0  0  0  0  0  0  0
    4.6692   -3.9263    0.1698 O   0  0  0  0  0  0  0  0  0  0  0  0
    3.8701   -1.6840   -0.2117 C   0  0  0  0  0  0  0  0  0  0  0  0
    4.3556   -1.3547    1.1930 C   0  0  0  0  0  0  0  0  0  0  0  0
    3.8976   -0.0501    1.6303 N   0  0  0  0  0  0  0  0  0  0  0  0
    4.4482    1.1190    1.1635 C   0  0  0  0  0  0  0  0  0  0  0  0
    5.3782    1.1650    0.3641 O   0  0  0  0  0  0  0  0  0  0  0  0
    3.7680    2.3705    1.6755 C   0  0  0  0  0  0  0  0  0  0  0  0
    2.5647    2.7153    0.8070 C   0  0  0  0  0  0  0  0  0  0  0  0
    1.3583    1.8347    1.0974 C   0  0  0  0  0  0  0  0  0  0  0  0
    1.3683    1.0020    1.9983 O   0  0  0  0  0  0  0  0  0  0  0  0
    0.3146    2.0995    0.2283 N   0  0  0  0  0  0  0  0  0  0  0  0
   -0.9449    1.4677    0.1795 C   0  0  0  0  0  0  0  0  0  0  0  0
   -1.8291    1.8824   -0.8205 C   0  0  0  0  0  0  0  0  0  0  0  0
   -3.0971    1.2979   -0.9435 C   0  0  0  0  0  0  0  0  0  0  0  0
   -3.5285    0.2826   -0.0718 C   0  0  0  0  0  0  0  0  0  0  0  0
   -4.8642   -0.3353   -0.2030 C   0  0  0  0  0  0  0  0  0  0  0  0
   -5.2331   -1.2453    0.7197 N   0  0  0  0  0  0  0  0  0  0  0  0
   -6.4537   -1.7893    0.5712 C   0  0  0  0  0  0  0  0  0  0  0  0
   -7.3104   -1.4673   -0.4541 C   0  0  0  0  0  0  0  0  0  0  0  0
   -6.8520   -0.5280   -1.3540 C   0  0  0  0  0  0  0  0  0  0  0  0
   -7.7085   -0.1060   -2.5094 C   0  0  0  0  0  0  0  0  0  0  0  0
   -5.6363    0.0466   -1.2418 N   0  0  0  0  0  0  0  0  0  0  0  0
   -2.6256   -0.1147    0.9305 C   0  0  0  0  0  0  0  0  0  0  0  0
   -1.3538    0.4656    1.0558 C   0  0  0  0  0  0  0  0  0  0  0  0
  1  2  1  0
  2  3  2  0
  2  4  1  0
  4  5  1  0
  5  6  1  0
  6  7  1  0
  7  8  2  0
  7  9  1  0
  9 10  1  0
 10 11  1  0
 11 12  2  0
 11 13  1  0
 13 14  1  0
 14 15  2  0
 15 16  1  0
 16 17  2  0
 17 18  1  0
 18 19  2  0
 19 20  1  0
 20 21  2  0
 21 22  1  0
 22 23  1  0
 22 24  2  0
 17 25  1  0
 25 26  2  0
 26 14  1  0
 24 18  1  0
M  END
>  <energy>  (74) 
-37.77

>  <full_id>  (74) 
MOL00002441-000514-04_1

>  <mol_id>  (74) 
MOL00002441-000514-04

>  <act_mol>  (74) 
0

>  <act_conf>  (74) 
0

$$$$
MOL00002359-001324-03
     RDKit          3D

 24 25  0  0  0  0  0  0  0  0999 V2000
   -2.0829   -1.9592    2.0890 C   0  0  0  0  0  0  0  0  0  0  0  0
   -2.4328   -1.7880    0.6142 C   0  0  0  0  0  0  0  0  0  0  0  0
   -3.0513   -0.4257    0.1715 C   0  0  0  0  0  0  0  0  0  0  0  0
   -3.3383   -0.4604   -1.3559 C   0  0  0  0  0  0  0  0  0  0  0  0
   -4.3801   -1.4794   -1.8064 C   0  0  0  0  0  0  0  0  0  0  0  0
   -4.3408   -0.1063    0.9583 C   0  0  0  0  0  0  0  0  0  0  0  0
   -3.9129    0.6701    2.0839 N   0  0  0  0  0  0  0  0  0  0  0  0
   -2.6547    1.2043    1.9122 C   0  0  0  0  0  0  0  0  0  0  0  0
   -2.0575    1.8730    2.7390 O   0  0  0  0  0  0  0  0  0  0  0  0
   -2.1669    0.8151    0.5162 C   0  0  1  0  0  0  0  0  0  0  0  0
   -0.7313    0.6083    0.4927 N   0  0  0  0  0  0  0  0  0  0  0  0
    0.0192    0.7876   -0.6425 C   0  0  0  0  0  0  0  0  0  0  0  0
   -0.4773    1.0573   -1.7316 O   0  0  0  0  0  0  0  0  0  0  0  0
    1.4979    0.6542   -0.5205 C   0  0  0  0  0  0  0  0  0  0  0  0
    2.2853    0.9188   -1.6519 C   0  0  0  0  0  0  0  0  0  0  0  0
    3.6807    0.8057   -1.5982 C   0  0  0  0  0  0  0  0  0  0  0  0
    4.3072    0.4224   -0.4070 C   0  0  0  0  0  0  0  0  0  0  0  0
    5.7875    0.2840   -0.2900 C   0  0  0  0  0  0  0  0  0  0  0  0
    6.2932   -0.0442    0.7841 O   0  0  0  0  0  0  0  0  0  0  0  0
    6.6606    0.5575   -1.5081 C   0  0  0  0  0  0  0  0  0  0  0  0
    8.0342    0.3316   -1.2175 O   0  0  0  0  0  0  0  0  0  0  0  0
    3.5245    0.1565    0.7234 C   0  0  0  0  0  0  0  0  0  0  0  0
    2.1361    0.2724    0.6599 C   0  0  0  0  0  0  0  0  0  0  0  0
    1.4341    0.0030    1.7711 F   0  0  0  0  0  0  0  0  0  0  0  0
  1  2  1  0
  3  2  1  0
  3  4  1  0
  4  5  1  0
  3  6  1  0
  6  7  1  0
  7  8  1  0
  8  9  2  0
  8 10  1  0
 10 11  1  1
 11 12  1  0
 12 13  2  0
 12 14  1  0
 14 15  2  0
 15 16  1  0
 16 17  2  0
 17 18  1  0
 18 19  2  0
 18 20  1  0
 20 21  1  0
 17 22  1  0
 22 23  2  0
 23 24  1  0
 10  3  1  0
 23 14  1  0
M  END
>  <energy>  (75) 
56.22

>  <full_id>  (75) 
MOL00002359-001324-03_1

>  <mol_id>  (75) 
MOL00002359-001324-03

>  <act_mol>  (75) 
0

>  <act_conf>  (75) 
0

$$$$
MOL00002036-000166-02
     RDKit          3D

 24 26  0  0  0  0  0  0  0  0999 V2000
    6.6359   -0.2520    2.2615 C   0  0  0  0  0  0  0  0  0  0  0  0
    5.9796   -0.3506    0.8898 C   0  0  0  0  0  0  0  0  0  0  0  0
    6.8894    0.2289   -0.1872 C   0  0  0  0  0  0  0  0  0  0  0  0
    4.7585    0.4095    0.9490 O   0  0  0  0  0  0  0  0  0  0  0  0
    3.7847    0.0561    0.0616 C   0  0  0  0  0  0  0  0  0  0  0  0
    3.8804   -0.8418   -0.7629 O   0  0  0  0  0  0  0  0  0  0  0  0
    2.5631    0.9440    0.2581 C   0  0  1  0  0  0  0  0  0  0  0  0
    1.6561    0.9569   -0.9800 C   0  0  0  0  0  0  0  0  0  0  0  0
    0.7740   -0.2885   -1.1134 C   0  0  0  0  0  0  0  0  0  0  0  0
   -0.0028   -0.6379    0.1667 C   0  0  2  0  0  0  0  0  0  0  0  0
   -1.0525    0.3382    0.4857 N   0  0  0  0  0  0  0  0  0  0  0  0
   -2.2858    0.1618   -0.3171 C   0  0  1  0  0  0  0  0  0  0  0  0
   -3.2509   -0.8009    0.3781 C   0  0  0  0  0  0  0  0  0  0  0  0
   -4.6040   -0.7898   -0.2820 C   0  0  0  0  0  0  0  0  0  0  0  0
   -5.4299   -1.9193   -0.2557 C   0  0  0  0  0  0  0  0  0  0  0  0
   -6.7177   -1.8578   -0.7902 C   0  0  0  0  0  0  0  0  0  0  0  0
   -7.1939   -0.6650   -1.3345 C   0  0  0  0  0  0  0  0  0  0  0  0
   -6.3818    0.4696   -1.3510 C   0  0  0  0  0  0  0  0  0  0  0  0
   -5.0882    0.4005   -0.8353 C   0  0  0  0  0  0  0  0  0  0  0  0
   -4.2788    1.5394   -0.8497 N   0  0  0  0  0  0  0  0  0  0  0  0
   -2.9477    1.5393   -0.5235 C   0  0  0  0  0  0  0  0  0  0  0  0
   -2.3077    2.5932   -0.5054 O   0  0  0  0  0  0  0  0  0  0  0  0
    0.9709   -0.7166    1.3536 C   0  0  0  0  0  0  0  0  0  0  0  0
    1.8090    0.5511    1.5317 C   0  0  0  0  0  0  0  0  0  0  0  0
  2  1  1  0
  2  3  1  0
  2  4  1  0
  4  5  1  0
  5  6  2  0
  7  5  1  6
  7  8  1  0
  8  9  1  0
  9 10  1  0
 10 11  1  1
 12 11  1  1
 12 13  1  0
 13 14  1  0
 14 15  2  0
 15 16  1  0
 16 17  2  0
 17 18  1  0
 18 19  2  0
 19 20  1  0
 20 21  1  0
 21 22  2  0
 10 23  1  0
 23 24  1  0
 24  7  1  0
 21 12  1  0
 19 14  1  0
M  END
>  <energy>  (76) 
37.83

>  <full_id>  (76) 
MOL00002036-000166-02_1

>  <mol_id>  (76) 
MOL00002036-000166-02

>  <act_mol>  (76) 
0

>  <act_conf>  (76) 
0

$$$$
MOL00002651-001243-03
     RDKit          3D

 20 22  0  0  0  0  0  0  0  0999 V2000
   -3.9928    1.8507   -0.8612 N   0  0  0  0  0  0  0  0  0  0  0  0
   -2.8024    1.2050   -0.6990 C   0  0  0  0  0  0  0  0  0  0  0  0
   -1.7978    1.8293   -0.3635 O   0  0  0  0  0  0  0  0  0  0  0  0
   -2.7984   -0.2400   -0.9267 C   0  0  0  0  0  0  0  0  0  0  0  0
   -3.8766   -1.0578   -1.4189 C   0  0  0  0  0  0  0  0  0  0  0  0
   -3.5319   -2.3868   -1.5205 C   0  0  0  0  0  0  0  0  0  0  0  0
   -1.9219   -2.6606   -1.0364 S   0  0  0  0  0  0  0  0  0  0  0  0
   -1.6722   -1.0195   -0.6846 C   0  0  0  0  0  0  0  0  0  0  0  0
   -0.4533   -0.5501   -0.2156 N   0  0  0  0  0  0  0  0  0  0  0  0
    0.6807   -1.2821    0.0634 C   0  0  0  0  0  0  0  0  0  0  0  0
    0.8301   -2.4962    0.0062 O   0  0  0  0  0  0  0  0  0  0  0  0
    1.8194   -0.4170    0.5259 C   0  0  0  0  0  0  0  0  0  0  0  0
    2.1353    0.8651   -0.1100 C   0  0  0  0  0  0  0  0  0  0  0  0
    3.1780    1.5813    0.3469 C   0  0  0  0  0  0  0  0  0  0  0  0
    3.9409    1.0913    1.4044 N   0  0  0  0  0  0  0  0  0  0  0  0
    5.0133    1.6344    2.0213 N   0  0  0  0  0  0  0  0  0  0  0  0
    5.3723    0.7731    2.9641 N   0  0  0  0  0  0  0  0  0  0  0  0
    4.5532   -0.3276    2.9757 N   0  0  0  0  0  0  0  0  0  0  0  0
    3.6753   -0.1340    2.0175 C   0  0  0  0  0  0  0  0  0  0  0  0
    2.5783   -0.8991    1.5354 C   0  0  0  0  0  0  0  0  0  0  0  0
  1  2  1  0
  2  3  2  0
  2  4  1  0
  4  5  1  0
  5  6  2  0
  6  7  1  0
  7  8  1  0
  8  9  1  0
  9 10  1  0
 10 11  2  0
 10 12  1  0
 12 13  1  0
 13 14  2  0
 14 15  1  0
 15 16  1  0
 16 17  2  0
 17 18  1  0
 18 19  2  0
 19 20  1  0
  8  4  2  0
 20 12  2  0
 19 15  1  0
M  END
>  <energy>  (77) 
-2.32

>  <full_id>  (77) 
MOL00002651-001243-03_1

>  <mol_id>  (77) 
MOL00002651-001243-03

>  <act_mol>  (77) 
0

>  <act_conf>  (77) 
0

$$$$
MOL00002565-001443-04
     RDKit          3D

 26 27  0  0  0  0  0  0  0  0999 V2000
   -2.1633   -4.9174    2.9141 C   0  0  0  0  0  0  0  0  0  0  0  0
   -1.8067   -3.7492    2.0350 C   0  0  0  0  0  0  0  0  0  0  0  0
   -0.5060   -3.2203    2.0898 C   0  0  0  0  0  0  0  0  0  0  0  0
   -0.1249   -2.1325    1.2939 C   0  0  0  0  0  0  0  0  0  0  0  0
    1.5002   -1.5806    1.4719 Cl  0  0  0  0  0  0  0  0  0  0  0  0
   -1.0587   -1.5610    0.4332 C   0  0  0  0  0  0  0  0  0  0  0  0
   -0.6477   -0.1949   -0.6180 S   0  0  0  0  0  6  0  0  0  0  0  0
   -1.8504    0.2012   -1.3205 O   0  0  0  0  0  0  0  0  0  0  0  0
    0.5566   -0.5346   -1.3440 O   0  0  0  0  0  0  0  0  0  0  0  0
   -0.3486    1.0479    0.5185 N   0  0  0  0  0  0  0  0  0  0  0  0
    0.4068    2.1149   -0.0650 C   0  0  0  0  0  0  0  0  0  0  0  0
    1.7322    1.9813   -0.1895 C   0  0  0  0  0  0  0  0  0  0  0  0
    2.5207    3.0480   -0.8000 C   0  0  0  0  0  0  0  0  0  0  0  0
    4.0077    2.8205   -0.9813 C   0  0  0  0  0  0  0  0  0  0  0  0
    4.6435    4.0099   -1.2245 F   0  0  0  0  0  0  0  0  0  0  0  0
    4.5585    2.3631    0.1849 F   0  0  0  0  0  0  0  0  0  0  0  0
    4.2152    1.8445   -2.1552 C   0  0  0  0  0  0  0  0  0  0  0  0
    4.1228    2.1082   -3.3479 O   0  0  0  0  0  0  0  0  0  0  0  0
    4.4750    0.5694   -1.7758 O   0  0  0  0  0  0  0  0  0  0  0  0
    1.8981    4.1836   -1.1700 C   0  0  0  0  0  0  0  0  0  0  0  0
    0.5429    4.3444   -0.9950 N   0  0  0  0  0  0  0  0  0  0  0  0
   -0.2782    3.3861   -0.4463 C   0  0  0  0  0  0  0  0  0  0  0  0
   -1.4791    3.5432   -0.2544 O   0  0  0  0  0  0  0  0  0  0  0  0
   -2.3629   -2.0783    0.3697 C   0  0  0  0  0  0  0  0  0  0  0  0
   -2.7500   -3.1642    1.1711 C   0  0  0  0  0  0  0  0  0  0  0  0
   -4.1563   -3.6910    1.0686 C   0  0  0  0  0  0  0  0  0  0  0  0
  1  2  1  0
  2  3  2  0
  3  4  1  0
  4  5  1  0
  4  6  2  0
  6  7  1  0
  7  8  2  0
  7  9  2  0
  7 10  1  0
 10 11  1  0
 11 12  2  0
 12 13  1  0
 13 14  1  0
 14 15  1  0
 14 16  1  0
 14 17  1  0
 17 18  2  0
 17 19  1  0
 13 20  2  0
 20 21  1  0
 21 22  1  0
 22 23  2  0
  6 24  1  0
 24 25  2  0
 25 26  1  0
 25  2  1  0
 22 11  1  0
M  END
>  <energy>  (78) 
58.88

>  <full_id>  (78) 
MOL00002565-001443-04_1

>  <mol_id>  (78) 
MOL00002565-001443-04

>  <act_mol>  (78) 
0

>  <act_conf>  (78) 
0

$$$$
MOL00002508-001755-04
     RDKit          3D

 30 33  0  0  0  0  0  0  0  0999 V2000
    3.1424    2.4942    0.2397 C   0  0  0  0  0  0  0  0  0  0  0  0
    3.0235    1.0246   -0.1778 C   0  0  2  0  0  0  0  0  0  0  0  0
    2.4388    0.2194    0.9007 N   0  0  0  0  0  0  0  0  0  0  0  0
    1.0408    0.2594    1.0159 C   0  0  0  0  0  0  0  0  0  0  0  0
    0.4463   -0.5190    2.0069 C   0  0  0  0  0  0  0  0  0  0  0  0
   -0.9405   -0.4933    2.1750 C   0  0  0  0  0  0  0  0  0  0  0  0
   -1.7221    0.3175    1.3534 C   0  0  0  0  0  0  0  0  0  0  0  0
   -3.1663    0.4066    1.4597 C   0  0  0  0  0  0  0  0  0  0  0  0
   -4.0186    1.1271    0.7639 N   0  0  0  0  0  0  0  0  0  0  0  0
   -5.2267    0.7625    1.3132 C   0  0  0  0  0  0  0  0  0  0  0  0
   -6.5184    1.3316    0.8542 C   0  0  0  0  0  0  0  0  0  0  0  0
   -6.9724    0.4726   -0.3014 C   0  0  0  0  0  0  0  0  0  0  0  0
   -7.7899   -0.6469   -0.0811 C   0  0  0  0  0  0  0  0  0  0  0  0
   -8.2070   -1.4415   -1.1503 C   0  0  0  0  0  0  0  0  0  0  0  0
   -7.8111   -1.1285   -2.4492 C   0  0  0  0  0  0  0  0  0  0  0  0
   -6.9955   -0.0228   -2.6812 C   0  0  0  0  0  0  0  0  0  0  0  0
   -6.5769    0.7736   -1.6142 C   0  0  0  0  0  0  0  0  0  0  0  0
   -5.1397   -0.1048    2.3327 N   0  0  0  0  0  0  0  0  0  0  0  0
   -3.7693   -0.3545    2.4222 O   0  0  0  0  0  0  0  0  0  0  0  0
   -1.0451    1.0649    0.3990 C   0  0  0  0  0  0  0  0  0  0  0  0
    0.3016    1.0535    0.2198 N   0  0  0  0  0  0  0  0  0  0  0  0
    4.4029    0.4529   -0.5020 C   0  0  0  0  0  0  0  0  0  0  0  0
    5.4061    0.3606    0.4784 C   0  0  0  0  0  0  0  0  0  0  0  0
    6.6624   -0.1715    0.1721 C   0  0  0  0  0  0  0  0  0  0  0  0
    6.9359   -0.6178   -1.1252 C   0  0  0  0  0  0  0  0  0  0  0  0
    8.2539   -1.1942   -1.5027 C   0  0  0  0  0  0  0  0  0  0  0  0
    9.3357   -0.8493   -0.7399 N   0  0  0  0  0  0  0  0  0  0  0  0
    8.3834   -1.9224   -2.4785 O   0  0  0  0  0  0  0  0  0  0  0  0
    5.9373   -0.5481   -2.1030 C   0  0  0  0  0  0  0  0  0  0  0  0
    4.6826   -0.0145   -1.7952 C   0  0  0  0  0  0  0  0  0  0  0  0
  2  1  1  1
  2  3  1  0
  3  4  1  0
  4  5  2  0
  5  6  1  0
  6  7  2  0
  7  8  1  0
  8  9  2  0
  9 10  1  0
 10 11  1  0
 11 12  1  0
 12 13  2  0
 13 14  1  0
 14 15  2  0
 15 16  1  0
 16 17  2  0
 10 18  2  0
 18 19  1  0
  7 20  1  0
 20 21  2  0
  2 22  1  0
 22 23  2  0
 23 24  1  0
 24 25  2  0
 25 26  1  0
 26 27  1  0
 26 28  2  0
 25 29  1  0
 29 30  2  0
 21  4  1  0
 30 22  1  0
 19  8  1  0
 17 12  1  0
M  END
>  <energy>  (79) 
37.43

>  <full_id>  (79) 
MOL00002508-001755-04_1

>  <mol_id>  (79) 
MOL00002508-001755-04

>  <act_mol>  (79) 
0

>  <act_conf>  (79) 
0

$$$$
MOL00002246-000786-04
     RDKit          3D

 27 28  0  0  0  0  0  0  0  0999 V2000
   -5.8913    2.0139   -0.7375 C   0  0  0  0  0  0  0  0  0  0  0  0
   -5.0522    0.9476   -0.0642 C   0  0  0  0  0  0  0  0  0  0  0  0
   -5.6738   -0.2225    0.4440 C   0  0  0  0  0  0  0  0  0  0  0  0
   -7.0632   -0.3722    0.3368 N   0  0  0  0  0  0  0  0  0  0  0  0
   -7.7816   -1.5047    0.9368 C   0  0  0  0  0  0  0  0  0  0  0  0
   -7.8228   -2.6865   -0.0387 C   0  0  0  0  0  0  0  0  0  0  0  0
   -8.3054   -2.2422   -1.3076 O   0  0  0  0  0  0  0  0  0  0  0  0
   -4.8474   -1.2321    0.9421 C   0  0  0  0  0  0  0  0  0  0  0  0
   -3.4599   -1.0816    1.0119 C   0  0  0  0  0  0  0  0  0  0  0  0
   -2.8418    0.0914    0.5870 C   0  0  0  0  0  0  0  0  0  0  0  0
   -1.4412    0.2475    0.6321 N   0  0  0  0  0  0  0  0  0  0  0  0
   -0.4768   -0.6176    1.1138 C   0  0  0  0  0  0  0  0  0  0  0  0
   -0.6564   -1.7134    1.6322 O   0  0  0  0  0  0  0  0  0  0  0  0
    0.8798   -0.0612    0.9392 C   0  0  0  0  0  0  0  0  0  0  0  0
    2.1075   -0.6624    1.3152 C   0  0  0  0  0  0  0  0  0  0  0  0
    3.0872    0.2294    0.9404 C   0  0  0  0  0  0  0  0  0  0  0  0
    4.5720    0.1893    1.0556 C   0  0  0  0  0  0  0  0  0  0  0  0
    5.2040   -0.9797    0.2960 C   0  0  0  0  0  0  0  0  0  0  0  0
    4.9757   -0.9886   -1.2226 C   0  0  0  0  0  0  0  0  0  0  0  0
    5.3779    0.2957   -1.9632 C   0  0  0  0  0  0  0  0  0  0  0  0
    6.7397    0.7698   -1.6698 N   0  0  0  0  0  0  0  0  0  0  0  0
    6.9474    2.0973   -2.2556 C   0  0  0  0  0  0  0  0  0  0  0  0
    7.7588   -0.1533   -2.1776 C   0  0  0  0  0  0  0  0  0  0  0  0
    2.4237    1.2929    0.3963 N   0  0  0  0  0  0  0  0  0  0  0  0
    1.0874    1.1460    0.3688 N   0  0  0  0  0  0  0  0  0  0  0  0
   -3.6431    1.1390    0.0749 C   0  0  0  0  0  0  0  0  0  0  0  0
   -3.0045    2.4404   -0.3589 C   0  0  0  0  0  0  0  0  0  0  0  0
  1  2  1  0
  2  3  2  0
  3  4  1  0
  4  5  1  0
  5  6  1  0
  6  7  1  0
  3  8  1  0
  8  9  2  0
  9 10  1  0
 10 11  1  0
 11 12  1  0
 12 13  2  0
 12 14  1  0
 14 15  1  0
 15 16  2  0
 16 17  1  0
 17 18  1  0
 18 19  1  0
 19 20  1  0
 20 21  1  0
 21 22  1  0
 21 23  1  0
 16 24  1  0
 24 25  1  0
 10 26  2  0
 26 27  1  0
 26  2  1  0
 25 14  2  0
M  END
>  <energy>  (80) 
72.11

>  <full_id>  (80) 
MOL00002246-000786-04_1

>  <mol_id>  (80) 
MOL00002246-000786-04

>  <act_mol>  (80) 
0

>  <act_conf>  (80) 
0

$$$$
MOL00002745-000076-02
     RDKit          3D

 19 21  0  0  0  0  0  0  0  0999 V2000
   -1.1654    2.6481    1.0741 O   0  0  0  0  0  0  0  0  0  0  0  0
   -1.0835    1.4326    0.9170 C   0  0  0  0  0  0  0  0  0  0  0  0
    0.0738    0.7397    1.1623 N   0  0  0  0  0  0  0  0  0  0  0  0
    1.2886    1.4075    1.5841 C   0  0  0  0  0  0  0  0  0  0  0  0
    2.4654    0.4423    1.7703 C   0  0  0  0  0  0  0  0  0  0  0  0
    2.8926   -0.2026    0.5342 N   0  0  0  0  0  0  0  0  0  0  0  0
    3.7524    0.4557   -0.4161 C   0  0  0  0  0  0  0  0  0  0  0  0
    4.0222   -0.6304   -1.4386 C   0  0  0  0  0  0  0  0  0  0  0  0
    2.7289   -1.4372   -1.4562 C   0  0  0  0  0  0  0  0  0  0  0  0
    2.1747   -1.2285   -0.0683 C   0  0  0  0  0  0  0  0  0  0  0  0
    1.2092   -1.8047    0.4087 O   0  0  0  0  0  0  0  0  0  0  0  0
   -2.2040    0.6367    0.4535 C   0  0  0  0  0  0  0  0  0  0  0  0
   -2.3163   -0.7293    0.1929 C   0  0  0  0  0  0  0  0  0  0  0  0
   -3.6443   -0.8927   -0.2304 C   0  0  0  0  0  0  0  0  0  0  0  0
   -4.4523   -1.9032   -0.6409 O   0  0  0  0  0  0  0  0  0  0  0  0
   -5.6500   -1.2988   -0.8960 C   0  0  0  0  0  0  0  0  0  0  0  0
   -5.6300    0.0588   -0.6632 C   0  0  0  0  0  0  0  0  0  0  0  0
   -4.3069    0.2793   -0.2324 C   0  0  0  0  0  0  0  0  0  0  0  0
   -3.4304    1.2381    0.1887 N   0  0  0  0  0  0  0  0  0  0  0  0
  1  2  2  0
  2  3  1  0
  3  4  1  0
  4  5  1  0
  5  6  1  0
  6  7  1  0
  7  8  1  0
  8  9  1  0
  9 10  1  0
 10 11  2  0
  2 12  1  0
 12 13  2  0
 13 14  1  0
 14 15  1  0
 15 16  1  0
 16 17  2  0
 17 18  1  0
 18 19  1  0
 10  6  1  0
 19 12  1  0
 18 14  2  0
M  END
>  <energy>  (81) 
-43.88

>  <full_id>  (81) 
MOL00002745-000076-02_1

>  <mol_id>  (81) 
MOL00002745-000076-02

>  <act_mol>  (81) 
0

>  <act_conf>  (81) 
0

$$$$
MOL00002080-000882-04
     RDKit          3D

 26 26  0  0  0  0  0  0  0  0999 V2000
   -6.7121    0.3456    1.3134 C   0  0  0  0  0  0  0  0  0  0  0  0
   -6.4807   -1.0856    1.7790 C   0  0  0  0  0  0  0  0  0  0  0  0
   -5.7433   -1.9655    0.7504 C   0  0  0  0  0  0  0  0  0  0  0  0
   -5.7255   -3.4250    1.2380 C   0  0  0  0  0  0  0  0  0  0  0  0
   -5.1537   -4.3844    0.2019 C   0  0  0  0  0  0  0  0  0  0  0  0
   -4.3761   -1.4996    0.5434 N   0  0  0  0  0  0  0  0  0  0  0  0
   -4.0482   -0.6329   -0.4669 C   0  0  0  0  0  0  0  0  0  0  0  0
   -4.8232   -0.2295   -1.3224 O   0  0  0  0  0  0  0  0  0  0  0  0
   -2.7289   -0.2706   -0.3928 N   0  0  0  0  0  0  0  0  0  0  0  0
   -2.1783    0.5923   -1.4122 C   0  0  0  0  0  0  0  0  0  0  0  0
   -0.7509    0.9525   -1.0916 C   0  0  0  0  0  0  0  0  0  0  0  0
    0.3041    0.4646   -1.8767 C   0  0  0  0  0  0  0  0  0  0  0  0
    1.6254    0.7952   -1.5696 C   0  0  0  0  0  0  0  0  0  0  0  0
    1.8939    1.6083   -0.4652 C   0  0  0  0  0  0  0  0  0  0  0  0
    3.5768    2.0240   -0.0883 S   0  0  0  0  0  6  0  0  0  0  0  0
    4.2083    2.4225   -1.3259 O   0  0  0  0  0  0  0  0  0  0  0  0
    3.5974    2.8695    1.0854 O   0  0  0  0  0  0  0  0  0  0  0  0
    4.2132    0.5348    0.3296 N   0  0  0  0  0  0  0  0  0  0  0  0
    4.0715    0.0527    1.7023 C   0  0  0  0  0  0  0  0  0  0  0  0
    4.7610   -1.3095    1.8430 C   0  0  0  0  0  0  0  0  0  0  0  0
    6.2938   -1.2984    1.6380 C   0  0  0  0  0  0  0  0  0  0  0  0
    7.0115   -0.4097    2.6555 C   0  0  0  0  0  0  0  0  0  0  0  0
    6.8329   -2.7309    1.7245 C   0  0  0  0  0  0  0  0  0  0  0  0
    6.5830   -0.7983    0.3270 O   0  0  0  0  0  0  0  0  0  0  0  0
    0.8563    2.1042    0.3264 C   0  0  0  0  0  0  0  0  0  0  0  0
   -0.4626    1.7740    0.0112 C   0  0  0  0  0  0  0  0  0  0  0  0
  1  2  1  0
  3  2  1  0
  3  4  1  0
  4  5  1  0
  3  6  1  0
  6  7  1  0
  7  8  2  0
  7  9  1  0
  9 10  1  0
 10 11  1  0
 11 12  2  0
 12 13  1  0
 13 14  2  0
 14 15  1  0
 15 16  2  0
 15 17  2  0
 15 18  1  0
 18 19  1  0
 19 20  1  0
 20 21  1  0
 21 22  1  0
 21 23  1  0
 21 24  1  0
 14 25  1  0
 25 26  2  0
 26 11  1  0
M  END
>  <energy>  (82) 
-130.43

>  <full_id>  (82) 
MOL00002080-000882-04_1

>  <mol_id>  (82) 
MOL00002080-000882-04

>  <act_mol>  (82) 
0

>  <act_conf>  (82) 
0

$$$$
MOL00002570-000264-04
     RDKit          3D

 30 32  0  0  0  0  0  0  0  0999 V2000
    8.0578    0.1673   -2.0934 C   0  0  0  0  0  0  0  0  0  0  0  0
    7.1375   -0.2645   -0.9951 C   0  0  0  0  0  0  0  0  0  0  0  0
    7.4297   -1.3564   -0.1942 C   0  0  0  0  0  0  0  0  0  0  0  0
    6.6428   -1.7679    0.8163 N   0  0  0  0  0  0  0  0  0  0  0  0
    5.5111   -1.0463    1.0351 C   0  0  0  0  0  0  0  0  0  0  0  0
    5.0818    0.0727    0.3066 C   0  0  0  0  0  0  0  0  0  0  0  0
    3.8962    0.7471    0.5756 N   0  0  0  0  0  0  0  0  0  0  0  0
    3.0961    0.3922    1.7487 C   0  0  0  0  0  0  0  0  0  0  0  0
    3.4005    1.8637   -0.2549 C   0  0  0  0  0  0  0  0  0  0  0  0
    2.7681    1.3632   -1.5687 C   0  0  0  0  0  0  0  0  0  0  0  0
    1.7991    0.2983   -1.3570 N   0  0  0  0  0  0  0  0  0  0  0  0
    0.5460    0.6019   -0.8655 C   0  0  0  0  0  0  0  0  0  0  0  0
    0.1671    1.7524   -0.6969 O   0  0  0  0  0  0  0  0  0  0  0  0
   -0.1712   -0.5479   -0.6229 N   0  0  0  0  0  0  0  0  0  0  0  0
   -1.4717   -0.6538   -0.0935 C   0  0  0  0  0  0  0  0  0  0  0  0
   -2.0393   -1.9329   -0.0382 C   0  0  0  0  0  0  0  0  0  0  0  0
   -3.3319   -2.1209    0.4660 C   0  0  0  0  0  0  0  0  0  0  0  0
   -4.0875   -1.0320    0.9152 C   0  0  0  0  0  0  0  0  0  0  0  0
   -5.4264   -1.2590    1.4449 C   0  0  0  0  0  0  0  0  0  0  0  0
   -5.7624   -2.2458    2.2599 N   0  0  0  0  0  0  0  0  0  0  0  0
   -7.1005   -2.1139    2.5155 N   0  0  0  0  0  0  0  0  0  0  0  0
   -7.6106   -1.0931    1.8459 N   0  0  0  0  0  0  0  0  0  0  0  0
   -6.5792   -0.5597    1.1608 N   0  0  0  0  0  0  0  0  0  0  0  0
   -6.8254    0.5063    0.2033 C   0  0  0  0  0  0  0  0  0  0  0  0
   -7.3067    1.7818    0.8968 C   0  0  0  0  0  0  0  0  0  0  0  0
   -7.8139    0.0699   -0.8823 C   0  0  0  0  0  0  0  0  0  0  0  0
   -3.4978    0.2332    0.8812 C   0  0  0  0  0  0  0  0  0  0  0  0
   -4.1670    1.3007    1.3435 F   0  0  0  0  0  0  0  0  0  0  0  0
   -2.2101    0.4296    0.3794 C   0  0  0  0  0  0  0  0  0  0  0  0
    5.9567    0.4472   -0.7237 C   0  0  0  0  0  0  0  0  0  0  0  0
  1  2  1  0
  2  3  2  0
  3  4  1  0
  4  5  2  0
  5  6  1  0
  6  7  1  0
  7  8  1  0
  7  9  1  0
  9 10  1  0
 10 11  1  0
 11 12  1  0
 12 13  2  0
 12 14  1  0
 14 15  1  0
 15 16  2  0
 16 17  1  0
 17 18  2  0
 18 19  1  0
 19 20  2  0
 20 21  1  0
 21 22  2  0
 22 23  1  0
 23 24  1  0
 24 25  1  0
 24 26  1  0
 18 27  1  0
 27 28  1  0
 27 29  2  0
  6 30  2  0
 30  2  1  0
 29 15  1  0
 23 19  1  0
M  END
>  <energy>  (83) 
-2.05

>  <full_id>  (83) 
MOL00002570-000264-04_1

>  <mol_id>  (83) 
MOL00002570-000264-04

>  <act_mol>  (83) 
0

>  <act_conf>  (83) 
0

$$$$
MOL00002665-001856-04
     RDKit          3D

 28 30  0  0  0  0  0  0  0  0999 V2000
   -3.8421    0.2994   -4.8907 C   0  0  0  0  0  0  0  0  0  0  0  0
   -4.6187   -0.1862   -3.6755 C   0  0  0  0  0  0  0  0  0  0  0  0
   -3.7202   -0.4152   -2.4846 C   0  0  0  0  0  0  0  0  0  0  0  0
   -3.6298    0.5943   -1.5064 C   0  0  0  0  0  0  0  0  0  0  0  0
   -2.8069    0.4531   -0.3852 C   0  0  0  0  0  0  0  0  0  0  0  0
   -2.7504    1.4931    0.5533 N   0  0  0  0  0  0  0  0  0  0  0  0
   -2.0023    1.3109    1.5833 C   0  0  0  0  0  0  0  0  0  0  0  0
   -1.9514    2.2978    2.4870 O   0  0  0  0  0  0  0  0  0  0  0  0
   -1.2484    0.2020    1.8544 N   0  0  0  0  0  0  0  0  0  0  0  0
   -0.4205    0.1254    3.0572 C   0  0  0  0  0  0  0  0  0  0  0  0
    0.9862    0.6591    2.7819 C   0  0  0  0  0  0  0  0  0  0  0  0
    1.4926    1.5555    3.4522 O   0  0  0  0  0  0  0  0  0  0  0  0
    1.6642   -0.0094    1.7821 N   0  0  0  0  0  0  0  0  0  0  0  0
    2.9954    0.3712    1.3312 C   0  0  1  0  0  0  0  0  0  0  0  0
    3.6555   -0.7786    0.5599 C   0  0  0  0  0  0  0  0  0  0  0  0
    2.9984   -1.0370   -0.8012 C   0  0  0  0  0  0  0  0  0  0  0  0
    2.8962    0.2248   -1.6672 C   0  0  2  0  0  0  0  0  0  0  0  0
    4.2383    0.5669   -2.2875 C   0  0  0  0  0  0  0  0  0  0  0  0
    4.9592    1.5183   -2.0275 O   0  0  0  0  0  0  0  0  0  0  0  0
    4.6068   -0.3269   -3.2273 O   0  0  0  0  0  0  0  0  0  0  0  0
    2.3010    1.4125   -0.8975 C   0  0  0  0  0  0  0  0  0  0  0  0
    2.9511    1.6432    0.4717 C   0  0  0  0  0  0  0  0  0  0  0  0
   -1.1942   -0.8362    0.9394 C   0  0  0  0  0  0  0  0  0  0  0  0
   -0.4251   -1.7893    1.0439 O   0  0  0  0  0  0  0  0  0  0  0  0
   -2.0651   -0.7175   -0.2434 C   0  0  0  0  0  0  0  0  0  0  0  0
   -2.1289   -1.7339   -1.1993 C   0  0  0  0  0  0  0  0  0  0  0  0
   -2.9502   -1.5744   -2.3130 C   0  0  0  0  0  0  0  0  0  0  0  0
   -2.9410   -2.6058   -3.2053 O   0  0  0  0  0  0  0  0  0  0  0  0
  1  2  1  0
  2  3  1  0
  3  4  2  0
  4  5  1  0
  5  6  1  0
  6  7  2  0
  7  8  1  0
  7  9  1  0
  9 10  1  0
 10 11  1  0
 11 12  2  0
 11 13  1  0
 14 13  1  6
 14 15  1  0
 15 16  1  0
 16 17  1  0
 17 18  1  1
 18 19  2  0
 18 20  1  0
 17 21  1  0
 21 22  1  0
  9 23  1  0
 23 24  2  0
 23 25  1  0
 25 26  1  0
 26 27  2  0
 27 28  1  0
 27  3  1  0
 25  5  2  0
 22 14  1  0
M  END
>  <energy>  (84) 
-109.19

>  <full_id>  (84) 
MOL00002665-001856-04_1

>  <mol_id>  (84) 
MOL00002665-001856-04

>  <act_mol>  (84) 
0

>  <act_conf>  (84) 
0

$$$$
MOL00002822-000222-03
     RDKit          3D

 30 32  0  0  0  0  0  0  0  0999 V2000
   -4.1077    2.3543    0.1171 C   0  0  0  0  0  0  0  0  0  0  0  0
   -2.7742    1.7021   -0.2832 C   0  0  0  0  0  0  0  0  0  0  0  0
   -2.1588    2.5815   -1.3899 C   0  0  0  0  0  0  0  0  0  0  0  0
   -3.0476    0.4422   -0.9234 O   0  0  0  0  0  0  0  0  0  0  0  0
   -2.8593   -0.6666   -0.1403 C   0  0  0  0  0  0  0  0  0  0  0  0
   -3.8413   -1.0114    0.7833 C   0  0  0  0  0  0  0  0  0  0  0  0
   -3.6896   -2.1506    1.5674 C   0  0  0  0  0  0  0  0  0  0  0  0
   -2.5652   -2.9728    1.4286 C   0  0  0  0  0  0  0  0  0  0  0  0
   -2.4332   -4.1150    2.2363 C   0  0  0  0  0  0  0  0  0  0  0  0
   -1.3292   -4.9560    2.1168 C   0  0  0  0  0  0  0  0  0  0  0  0
   -0.3420   -4.6636    1.1871 C   0  0  0  0  0  0  0  0  0  0  0  0
   -0.4619   -3.5319    0.3763 C   0  0  0  0  0  0  0  0  0  0  0  0
   -1.5699   -2.6562    0.4680 C   0  0  0  0  0  0  0  0  0  0  0  0
   -1.7351   -1.4917   -0.3450 C   0  0  0  0  0  0  0  0  0  0  0  0
   -0.7263   -1.1333   -1.4224 C   0  0  0  0  0  0  0  0  0  0  0  0
    0.5223   -0.6319   -0.8456 N   0  0  0  0  0  0  0  0  0  0  0  0
    1.4342   -0.1659   -1.8906 C   0  0  0  0  0  0  0  0  0  0  0  0
    2.7369    0.3372   -1.3173 C   0  0  0  0  0  0  0  0  0  0  0  0
    3.4087   -0.3589   -0.3002 C   0  0  0  0  0  0  0  0  0  0  0  0
    4.6297    0.1080    0.1970 C   0  0  0  0  0  0  0  0  0  0  0  0
    5.2015    1.2738   -0.3265 C   0  0  0  0  0  0  0  0  0  0  0  0
    6.4918    1.8091    0.1671 C   0  0  0  0  0  0  0  0  0  0  0  0
    7.0450    2.8158   -0.2347 O   0  0  0  0  0  0  0  0  0  0  0  0
    7.0318    1.0571    1.1419 O   0  0  0  0  0  0  0  0  0  0  0  0
    4.5492    1.9646   -1.3511 C   0  0  0  0  0  0  0  0  0  0  0  0
    3.3343    1.4898   -1.8368 C   0  0  0  0  0  0  0  0  0  0  0  0
    2.7364    2.1630   -2.8308 F   0  0  0  0  0  0  0  0  0  0  0  0
   -1.7519    1.7083    0.8819 C   0  0  0  0  0  0  0  0  0  0  0  0
   -0.5415    1.5608    0.7768 O   0  0  0  0  0  0  0  0  0  0  0  0
   -2.2954    1.8684    2.1057 O   0  0  0  0  0  0  0  0  0  0  0  0
  2  1  1  0
  2  3  1  0
  2  4  1  0
  4  5  1  0
  5  6  2  0
  6  7  1  0
  7  8  2  0
  8  9  1  0
  9 10  2  0
 10 11  1  0
 11 12  2  0
 12 13  1  0
 13 14  2  0
 14 15  1  0
 15 16  1  0
 16 17  1  0
 17 18  1  0
 18 19  2  0
 19 20  1  0
 20 21  2  0
 21 22  1  0
 22 23  2  0
 22 24  1  0
 21 25  1  0
 25 26  2  0
 26 27  1  0
  2 28  1  0
 28 29  2  0
 28 30  1  0
 14  5  1  0
 26 18  1  0
 13  8  1  0
M  END
>  <energy>  (85) 
49.19

>  <full_id>  (85) 
MOL00002822-000222-03_1

>  <mol_id>  (85) 
MOL00002822-000222-03

>  <act_mol>  (85) 
0

>  <act_conf>  (85) 
0

$$$$
MOL00003223-000460-02
     RDKit          3D

 18 19  0  0  0  0  0  0  0  0999 V2000
    6.3150    0.3297   -0.4338 C   0  0  0  0  0  0  0  0  0  0  0  0
    4.9559   -0.2585   -0.3318 C   0  0  0  0  0  0  0  0  0  0  0  0
    4.6295   -1.6007   -0.3549 C   0  0  0  0  0  0  0  0  0  0  0  0
    2.9343   -1.7897   -0.2022 S   0  0  0  0  0  0  0  0  0  0  0  0
    2.7601   -0.0994   -0.1257 C   0  0  0  0  0  0  0  0  0  0  0  0
    1.5528    0.5335    0.0216 N   0  0  0  0  0  0  0  0  0  0  0  0
    0.3019   -0.0452    0.0266 C   0  0  0  0  0  0  0  0  0  0  0  0
    0.0540   -1.2330   -0.1301 O   0  0  0  0  0  0  0  0  0  0  0  0
   -0.6849    0.9196    0.2474 N   0  0  0  0  0  0  0  0  0  0  0  0
   -2.0565    0.8495    0.2710 C   0  0  0  0  0  0  0  0  0  0  0  0
   -2.7349   -0.4191   -0.0452 C   0  0  0  0  0  0  0  0  0  0  0  0
   -4.0706   -0.3700    0.0085 C   0  0  0  0  0  0  0  0  0  0  0  0
   -4.9545   -1.5435   -0.2752 C   0  0  0  0  0  0  0  0  0  0  0  0
   -4.6812    0.8101    0.3376 N   0  0  0  0  0  0  0  0  0  0  0  0
   -4.0105    1.9751    0.6209 C   0  0  0  0  0  0  0  0  0  0  0  0
   -4.6523    2.9825    0.9022 O   0  0  0  0  0  0  0  0  0  0  0  0
   -2.6399    1.9577    0.5750 N   0  0  0  0  0  0  0  0  0  0  0  0
    3.8719    0.5953   -0.1956 N   0  0  0  0  0  0  0  0  0  0  0  0
  1  2  1  0
  2  3  2  0
  3  4  1  0
  4  5  1  0
  5  6  1  0
  6  7  1  0
  7  8  2  0
  7  9  1  0
  9 10  1  0
 10 11  1  0
 11 12  2  0
 12 13  1  0
 12 14  1  0
 14 15  1  0
 15 16  2  0
 15 17  1  0
  5 18  2  0
 18  2  1  0
 17 10  2  0
M  END
>  <energy>  (86) 
-155.55

>  <full_id>  (86) 
MOL00003223-000460-02_1

>  <mol_id>  (86) 
MOL00003223-000460-02

>  <act_mol>  (86) 
0

>  <act_conf>  (86) 
0

$$$$
MOL00002766-000006-03
     RDKit          3D

 31 34  0  0  0  0  0  0  0  0999 V2000
   10.1624   -0.7948   -1.2467 C   0  0  0  0  0  0  0  0  0  0  0  0
    9.1587    0.0514   -2.0144 C   0  0  0  0  0  0  0  0  0  0  0  0
    7.9338    0.3098   -1.2020 C   0  0  0  0  0  0  0  0  0  0  0  0
    7.8458    1.2090   -0.2431 N   0  0  0  0  0  0  0  0  0  0  0  0
    6.5957    1.2163    0.3420 N   0  0  0  0  0  0  0  0  0  0  0  0
    5.7858    0.3373   -0.2057 C   0  0  0  0  0  0  0  0  0  0  0  0
    4.4968    0.1676    0.2350 N   0  0  0  0  0  0  0  0  0  0  0  0
    3.5400   -0.6468   -0.3213 C   0  0  0  0  0  0  0  0  0  0  0  0
    3.6365   -1.3173   -1.3408 O   0  0  0  0  0  0  0  0  0  0  0  0
    2.2350   -0.6589    0.4011 C   0  0  0  0  0  0  0  0  0  0  0  0
    2.1594   -0.5543    1.7961 C   0  0  0  0  0  0  0  0  0  0  0  0
    0.9132   -0.5781    2.4327 C   0  0  0  0  0  0  0  0  0  0  0  0
   -0.2654   -0.7083    1.6837 C   0  0  0  0  0  0  0  0  0  0  0  0
   -1.5627   -0.7272    2.4120 C   0  0  0  0  0  0  0  0  0  0  0  0
   -1.6516   -0.8306    3.6237 O   0  0  0  0  0  0  0  0  0  0  0  0
   -2.5916   -0.5862    1.5435 O   0  0  0  0  0  0  0  0  0  0  0  0
   -3.8880   -0.5742    2.1636 C   0  0  0  0  0  0  0  0  0  0  0  0
   -4.9500   -0.2353    1.1542 C   0  0  0  0  0  0  0  0  0  0  0  0
   -4.7360    0.1337   -0.1228 C   0  0  0  0  0  0  0  0  0  0  0  0
   -5.8513    0.4539   -1.0122 C   0  0  0  0  0  0  0  0  0  0  0  0
   -5.6412    0.8485   -2.3371 C   0  0  0  0  0  0  0  0  0  0  0  0
   -6.7319    1.1520   -3.1561 C   0  0  0  0  0  0  0  0  0  0  0  0
   -8.0328    1.0638   -2.6551 C   0  0  0  0  0  0  0  0  0  0  0  0
   -8.2505    0.6705   -1.3328 C   0  0  0  0  0  0  0  0  0  0  0  0
   -7.1592    0.3676   -0.5192 C   0  0  0  0  0  0  0  0  0  0  0  0
   -7.3645   -0.0250    0.8081 N   0  0  0  0  0  0  0  0  0  0  0  0
   -6.3499   -0.3297    1.6751 C   0  0  0  0  0  0  0  0  0  0  0  0
   -6.5834   -0.6662    2.8323 O   0  0  0  0  0  0  0  0  0  0  0  0
   -0.1852   -0.8367    0.2908 C   0  0  0  0  0  0  0  0  0  0  0  0
    1.0600   -0.8151   -0.3460 C   0  0  0  0  0  0  0  0  0  0  0  0
    6.4876   -0.5802   -1.4565 S   0  0  0  0  0  0  0  0  0  0  0  0
  1  2  1  0
  2  3  1  0
  3  4  2  0
  4  5  1  0
  5  6  2  0
  6  7  1  0
  7  8  1  0
  8  9  2  0
  8 10  1  0
 10 11  2  0
 11 12  1  0
 12 13  2  0
 13 14  1  0
 14 15  2  0
 14 16  1  0
 16 17  1  0
 17 18  1  0
 18 19  2  0
 19 20  1  0
 20 21  2  0
 21 22  1  0
 22 23  2  0
 23 24  1  0
 24 25  2  0
 25 26  1  0
 26 27  1  0
 27 28  2  0
 13 29  1  0
 29 30  2  0
  6 31  1  0
 31  3  1  0
 30 10  1  0
 27 18  1  0
 25 20  1  0
M  END
>  <energy>  (87) 
5.99

>  <full_id>  (87) 
MOL00002766-000006-03_1

>  <mol_id>  (87) 
MOL00002766-000006-03

>  <act_mol>  (87) 
0

>  <act_conf>  (87) 
0

$$$$
MOL00003007-001173-03
     RDKit          3D

 27 28  0  0  0  0  0  0  0  0999 V2000
    5.9864   -0.5007    0.1059 C   0  0  0  0  0  0  0  0  0  0  0  0
    5.6110    0.8650    0.6173 C   0  0  0  0  0  0  0  0  0  0  0  0
    6.5322    1.5563    1.4281 C   0  0  0  0  0  0  0  0  0  0  0  0
    6.2478    2.8323    1.9140 C   0  0  0  0  0  0  0  0  0  0  0  0
    5.0427    3.4404    1.5862 C   0  0  0  0  0  0  0  0  0  0  0  0
    4.1227    2.7624    0.7899 C   0  0  0  0  0  0  0  0  0  0  0  0
    2.9877    3.4068    0.4647 F   0  0  0  0  0  0  0  0  0  0  0  0
    4.3598    1.4529    0.3202 C   0  0  0  0  0  0  0  0  0  0  0  0
    3.4489    0.7896   -0.5508 N   0  0  0  0  0  0  0  0  0  0  0  0
    2.0945    1.0646   -0.2466 N   0  0  0  0  0  0  0  0  0  0  0  0
    1.2165   -0.0085   -0.3655 C   0  0  0  0  0  0  0  0  0  0  0  0
    1.6168   -1.1524   -0.5588 O   0  0  0  0  0  0  0  0  0  0  0  0
   -0.0913    0.3990   -0.1976 N   0  0  0  0  0  0  0  0  0  0  0  0
   -1.2667   -0.3883   -0.3004 C   0  0  0  0  0  0  0  0  0  0  0  0
   -1.2429   -1.7089   -0.7565 C   0  0  0  0  0  0  0  0  0  0  0  0
   -2.4215   -2.4610   -0.8516 C   0  0  0  0  0  0  0  0  0  0  0  0
   -3.6568   -1.9125   -0.4989 C   0  0  0  0  0  0  0  0  0  0  0  0
   -4.7894   -2.7457   -0.6227 N   0  0  0  0  0  0  0  0  0  0  0  0
   -6.1127   -2.4091   -0.3743 C   0  0  0  0  0  0  0  0  0  0  0  0
   -6.5191   -1.3124   -0.0014 O   0  0  0  0  0  0  0  0  0  0  0  0
   -7.0784   -3.5554   -0.5763 C   0  0  0  0  0  0  0  0  0  0  0  0
   -7.2771   -3.8089   -2.0009 C   0  0  0  0  0  0  0  0  0  0  0  0
   -7.4048   -4.0499   -3.1287 N   0  0  0  0  0  0  0  0  0  0  0  0
   -3.6949   -0.5937   -0.0500 C   0  0  0  0  0  0  0  0  0  0  0  0
   -2.5146    0.1666    0.0474 C   0  0  0  0  0  0  0  0  0  0  0  0
   -2.6209    1.5191    0.5128 C   0  0  0  0  0  0  0  0  0  0  0  0
   -2.6446    2.6189    0.8823 N   0  0  0  0  0  0  0  0  0  0  0  0
  1  2  1  0
  2  3  2  0
  3  4  1  0
  4  5  2  0
  5  6  1  0
  6  7  1  0
  6  8  2  0
  8  9  1  0
  9 10  1  0
 10 11  1  0
 11 12  2  0
 11 13  1  0
 13 14  1  0
 14 15  2  0
 15 16  1  0
 16 17  2  0
 17 18  1  0
 18 19  1  0
 19 20  2  0
 19 21  1  0
 21 22  1  0
 22 23  3  0
 17 24  1  0
 24 25  2  0
 25 26  1  0
 26 27  3  0
  8  2  1  0
 25 14  1  0
M  END
>  <energy>  (88) 
34.54

>  <full_id>  (88) 
MOL00003007-001173-03_1

>  <mol_id>  (88) 
MOL00003007-001173-03

>  <act_mol>  (88) 
0

>  <act_conf>  (88) 
0

$$$$
MOL00002675-000046-02
     RDKit          3D

 27 29  0  0  0  0  0  0  0  0999 V2000
    1.1910    3.1870   -0.3739 C   0  0  0  0  0  0  0  0  0  0  0  0
    1.3469    1.8797    0.3482 C   0  0  0  0  0  0  0  0  0  0  0  0
    0.8589    1.6626    1.4551 O   0  0  0  0  0  0  0  0  0  0  0  0
    2.1589    0.8233   -0.2966 C   0  0  0  0  0  0  0  0  0  0  0  0
    3.3604    0.4834    0.3471 C   0  0  0  0  0  0  0  0  0  0  0  0
    4.1842   -0.5174   -0.1761 C   0  0  0  0  0  0  0  0  0  0  0  0
    5.3971   -0.8791    0.4798 N   0  0  0  0  0  0  0  0  0  0  0  0
    6.2399   -1.9268    0.1645 C   0  0  0  0  0  0  0  0  0  0  0  0
    7.2659   -1.8810    1.0811 C   0  0  0  0  0  0  0  0  0  0  0  0
    7.0949   -0.8436    1.9476 N   0  0  0  0  0  0  0  0  0  0  0  0
    5.9773   -0.2640    1.5672 C   0  0  0  0  0  0  0  0  0  0  0  0
    3.7938   -1.1585   -1.3591 C   0  0  0  0  0  0  0  0  0  0  0  0
    2.5870   -0.8260   -1.9904 C   0  0  0  0  0  0  0  0  0  0  0  0
    1.7329    0.1512   -1.4532 C   0  0  0  0  0  0  0  0  0  0  0  0
    0.4158    0.4199   -2.1387 C   0  0  0  0  0  0  0  0  0  0  0  0
   -0.6795    0.5079   -1.2071 N   0  0  0  0  0  0  0  0  0  0  0  0
   -1.9548    0.6816   -1.6553 C   0  0  0  0  0  0  0  0  0  0  0  0
   -2.2200    0.8012   -2.8474 O   0  0  0  0  0  0  0  0  0  0  0  0
   -2.9094    0.7364   -0.6631 N   0  0  0  0  0  0  0  0  0  0  0  0
   -4.2884    0.9619   -1.0531 C   0  0  0  0  0  0  0  0  0  0  0  0
   -5.0598    1.0354    0.2482 C   0  0  0  0  0  0  0  0  0  0  0  0
   -4.0472    1.6424    1.2073 C   0  0  0  0  0  0  0  0  0  0  0  0
   -2.6908    1.0539    0.7698 C   0  0  1  0  0  0  0  0  0  0  0  0
   -2.1698   -0.1395    1.6450 C   0  0  0  0  0  0  0  0  0  0  0  0
   -2.9948   -1.4180    1.4965 C   0  0  0  0  0  0  0  0  0  0  0  0
   -2.0829    0.2366    3.1336 C   0  0  0  0  0  0  0  0  0  0  0  0
   -0.8272   -0.4762    1.2400 O   0  0  0  0  0  0  0  0  0  0  0  0
  1  2  1  0
  2  3  2  0
  2  4  1  0
  4  5  2  0
  5  6  1  0
  6  7  1  0
  7  8  1  0
  8  9  2  0
  9 10  1  0
 10 11  2  0
  6 12  2  0
 12 13  1  0
 13 14  2  0
 14 15  1  0
 15 16  1  0
 16 17  1  0
 17 18  2  0
 17 19  1  0
 19 20  1  0
 20 21  1  0
 21 22  1  0
 23 22  1  0
 23 24  1  1
 24 25  1  0
 24 26  1  0
 24 27  1  0
 14  4  1  0
 23 19  1  0
 11  7  1  0
M  END
>  <energy>  (89) 
-9.82

>  <full_id>  (89) 
MOL00002675-000046-02_1

>  <mol_id>  (89) 
MOL00002675-000046-02

>  <act_mol>  (89) 
0

>  <act_conf>  (89) 
0

$$$$
MOL00002524-000348-03
     RDKit          3D

 27 29  0  0  0  0  0  0  0  0999 V2000
    7.2889   -1.4800   -0.3632 C   0  0  0  0  0  0  0  0  0  0  0  0
    7.0671    0.0369   -0.3250 C   0  0  2  0  0  0  0  0  0  0  0  0
    6.6454    0.4929    1.0823 C   0  0  0  0  0  0  0  0  0  0  0  0
    5.2136    0.0937    1.4318 C   0  0  0  0  0  0  0  0  0  0  0  0
    4.2150    0.5958    0.3861 C   0  0  2  0  0  0  0  0  0  0  0  0
    2.8754    0.1432    0.7139 N   0  0  0  0  0  0  0  0  0  0  0  0
    1.7446    0.8001    0.2818 C   0  0  0  0  0  0  0  0  0  0  0  0
    1.7074    1.8792   -0.2926 O   0  0  0  0  0  0  0  0  0  0  0  0
    0.4332    0.0378    0.5748 C   0  0  0  0  0  0  0  0  0  0  0  0
    0.4983   -1.0685    1.0929 O   0  0  0  0  0  0  0  0  0  0  0  0
   -0.6770    0.7514    0.1860 N   0  0  0  0  0  0  0  0  0  0  0  0
   -2.0282    0.3775    0.2942 C   0  0  0  0  0  0  0  0  0  0  0  0
   -2.4661   -0.8263    0.8324 C   0  0  0  0  0  0  0  0  0  0  0  0
   -3.8401   -1.1062    0.8978 C   0  0  0  0  0  0  0  0  0  0  0  0
   -4.8162   -0.2010    0.4416 C   0  0  0  0  0  0  0  0  0  0  0  0
   -6.1737   -0.5473    0.5243 N   0  0  0  0  0  0  0  0  0  0  0  0
   -7.1470    0.2542   -0.2508 C   0  0  0  0  0  0  0  0  0  0  0  0
   -8.5404   -0.4141   -0.2276 C   0  0  0  0  0  0  0  0  0  0  0  0
   -9.0516   -0.6464    1.1364 N   0  0  0  0  0  0  0  0  0  0  0  0
   -8.0602   -1.4357    1.8914 C   0  0  0  0  0  0  0  0  0  0  0  0
   -6.6467   -0.8076    1.9081 C   0  0  0  0  0  0  0  0  0  0  0  0
   -4.3547    0.9976   -0.1121 C   0  0  0  0  0  0  0  0  0  0  0  0
   -2.9884    1.2762   -0.1759 C   0  0  0  0  0  0  0  0  0  0  0  0
   -2.5940    2.4463   -0.7052 F   0  0  0  0  0  0  0  0  0  0  0  0
    4.6082    0.1467   -1.0278 C   0  0  0  0  0  0  0  0  0  0  0  0
    6.0508    0.5485   -1.3742 C   0  0  2  0  0  0  0  0  0  0  0  0
    6.3985    0.1169   -2.7998 C   0  0  0  0  0  0  0  0  0  0  0  0
  2  1  1  1
  2  3  1  0
  3  4  1  0
  4  5  1  0
  5  6  1  1
  6  7  1  0
  7  8  2  0
  7  9  1  0
  9 10  2  0
  9 11  1  0
 11 12  1  0
 12 13  2  0
 13 14  1  0
 14 15  2  0
 15 16  1  0
 16 17  1  0
 17 18  1  0
 18 19  1  0
 19 20  1  0
 20 21  1  0
 15 22  1  0
 22 23  2  0
 23 24  1  0
  5 25  1  0
 25 26  1  0
 26 27  1  6
 26  2  1  0
 23 12  1  0
 21 16  1  0
M  END
>  <energy>  (90) 
126.86

>  <full_id>  (90) 
MOL00002524-000348-03_1

>  <mol_id>  (90) 
MOL00002524-000348-03

>  <act_mol>  (90) 
0

>  <act_conf>  (90) 
0

$$$$
MOL00002930-000062-03
     RDKit          3D

 23 24  0  0  0  0  0  0  0  0999 V2000
   -6.8983   -0.8058    0.6695 C   0  0  0  0  0  0  0  0  0  0  0  0
   -5.8767    0.0118    0.0252 N   0  0  0  0  0  0  0  0  0  0  0  0
   -5.1873    0.9069    0.9735 C   0  0  1  0  0  0  0  0  0  0  0  0
   -4.2529    0.1494    1.9297 C   0  0  0  0  0  0  0  0  0  0  0  0
   -3.0782   -0.5134    1.2021 C   0  0  0  0  0  0  0  0  0  0  0  0
   -2.2616    0.4998    0.3761 C   0  0  1  0  0  0  0  0  0  0  0  0
   -1.6574    1.4483    1.2665 O   0  0  0  0  0  0  0  0  0  0  0  0
   -1.1678   -0.1834   -0.4678 C   0  0  0  0  0  0  0  0  0  0  0  0
   -0.1082   -0.8907    0.3565 C   0  0  0  0  0  0  0  0  0  0  0  0
    0.0642   -0.6733    1.5526 O   0  0  0  0  0  0  0  0  0  0  0  0
    0.6602   -1.7623   -0.3810 N   0  0  0  0  0  0  0  0  0  0  0  0
    1.8142   -2.4255    0.1835 C   0  0  0  0  0  0  0  0  0  0  0  0
    3.0806   -1.7023   -0.1923 C   0  0  0  0  0  0  0  0  0  0  0  0
    3.4972   -0.5824    0.5384 C   0  0  0  0  0  0  0  0  0  0  0  0
    4.6555    0.1100    0.1802 C   0  0  0  0  0  0  0  0  0  0  0  0
    5.4184   -0.3034   -0.9186 C   0  0  0  0  0  0  0  0  0  0  0  0
    6.6655    0.4517   -1.3155 C   0  0  0  0  0  0  0  0  0  0  0  0
    6.3714    1.6046   -2.2751 C   0  0  0  0  0  0  0  0  0  0  0  0
    6.1566    1.1111   -3.5958 O   0  0  0  0  0  0  0  0  0  0  0  0
    4.9937   -1.4119   -1.6600 C   0  0  0  0  0  0  0  0  0  0  0  0
    3.8356   -2.1061   -1.3011 C   0  0  0  0  0  0  0  0  0  0  0  0
   -3.1865    1.3010   -0.5621 C   0  0  0  0  0  0  0  0  0  0  0  0
   -4.3656    1.9375    0.1802 C   0  0  0  0  0  0  0  0  0  0  0  0
  1  2  1  0
  3  2  1  6
  3  4  1  0
  4  5  1  0
  5  6  1  0
  6  7  1  1
  6  8  1  0
  8  9  1  0
  9 10  2  0
  9 11  1  0
 11 12  1  0
 12 13  1  0
 13 14  2  0
 14 15  1  0
 15 16  2  0
 16 17  1  0
 17 18  1  0
 18 19  1  0
 16 20  1  0
 20 21  2  0
  6 22  1  0
 22 23  1  0
 23  3  1  0
 21 13  1  0
M  END
>  <energy>  (91) 
11.68

>  <full_id>  (91) 
MOL00002930-000062-03_1

>  <mol_id>  (91) 
MOL00002930-000062-03

>  <act_mol>  (91) 
0

>  <act_conf>  (91) 
0

$$$$
MOL00003185-000482-04
     RDKit          3D

 29 31  0  0  0  0  0  0  0  0999 V2000
   -5.1685   -0.0348   -4.0813 C   0  0  0  0  0  0  0  0  0  0  0  0
   -5.5640   -0.0896   -2.7162 O   0  0  0  0  0  0  0  0  0  0  0  0
   -4.5826   -0.0706   -1.7592 C   0  0  0  0  0  0  0  0  0  0  0  0
   -3.2149    0.0698   -2.0541 C   0  0  0  0  0  0  0  0  0  0  0  0
   -2.2592    0.0334   -1.0161 C   0  0  0  0  0  0  0  0  0  0  0  0
   -0.8391    0.1378   -0.9733 C   0  0  0  0  0  0  0  0  0  0  0  0
   -0.4291    0.0189    0.3452 C   0  0  0  0  0  0  0  0  0  0  0  0
    0.8737    0.0467    0.9896 C   0  0  0  0  0  0  0  0  0  0  0  0
    0.9592   -0.0544    2.2084 O   0  0  0  0  0  0  0  0  0  0  0  0
    1.9392    0.1846    0.1214 N   0  0  0  0  0  0  0  0  0  0  0  0
    3.3117    0.2552    0.4383 C   0  0  0  0  0  0  0  0  0  0  0  0
    3.8198    0.2267    1.7402 C   0  0  0  0  0  0  0  0  0  0  0  0
    5.1981    0.3039    1.9700 C   0  0  0  0  0  0  0  0  0  0  0  0
    6.0746    0.3981    0.8886 C   0  0  0  0  0  0  0  0  0  0  0  0
    7.8249    0.5195    1.1841 S   0  0  0  0  0  6  0  0  0  0  0  0
    8.4189    1.1105   -0.0054 O   0  0  0  0  0  0  0  0  0  0  0  0
    7.9959    1.1784    2.4691 O   0  0  0  0  0  0  0  0  0  0  0  0
    8.3334   -1.2015    1.3134 C   0  0  0  0  0  0  0  0  0  0  0  0
    7.7078   -1.8597    2.3313 F   0  0  0  0  0  0  0  0  0  0  0  0
    8.0643   -1.9132    0.1806 F   0  0  0  0  0  0  0  0  0  0  0  0
    5.5855    0.4448   -0.4168 C   0  0  0  0  0  0  0  0  0  0  0  0
    4.2070    0.3690   -0.6360 C   0  0  0  0  0  0  0  0  0  0  0  0
   -1.5782   -0.1533    1.0906 N   0  0  0  0  0  0  0  0  0  0  0  0
   -2.6939   -0.1460    0.2907 C   0  0  0  0  0  0  0  0  0  0  0  0
   -4.0442   -0.2837    0.6219 C   0  0  0  0  0  0  0  0  0  0  0  0
   -4.9870   -0.2265   -0.4220 C   0  0  0  0  0  0  0  0  0  0  0  0
   -6.4150   -0.3604   -0.0148 C   0  0  0  0  0  0  0  0  0  0  0  0
   -7.4712    0.4363   -0.7344 C   0  0  0  0  0  0  0  0  0  0  0  0
   -6.7052   -1.0948    0.9296 O   0  0  0  0  0  0  0  0  0  0  0  0
  1  2  1  0
  2  3  1  0
  3  4  2  0
  4  5  1  0
  5  6  1  0
  6  7  2  0
  7  8  1  0
  8  9  2  0
  8 10  1  0
 10 11  1  0
 11 12  2  0
 12 13  1  0
 13 14  2  0
 15 14  1  0
 15 16  2  0
 15 17  2  0
 15 18  1  0
 18 19  1  0
 18 20  1  0
 14 21  1  0
 21 22  2  0
  7 23  1  0
 23 24  1  0
 24 25  1  0
 25 26  2  0
 26 27  1  0
 27 28  1  0
 27 29  2  0
 26  3  1  0
 24  5  2  0
 22 11  1  0
M  END
>  <energy>  (92) 
125.08

>  <full_id>  (92) 
MOL00003185-000482-04_1

>  <mol_id>  (92) 
MOL00003185-000482-04

>  <act_mol>  (92) 
0

>  <act_conf>  (92) 
0

$$$$
MOL00003041-000080-04
     RDKit          3D

 28 30  0  0  0  0  0  0  0  0999 V2000
    6.4835   -1.5584    2.2889 C   0  0  0  0  0  0  0  0  0  0  0  0
    6.8982   -1.2490    0.8578 C   0  0  0  0  0  0  0  0  0  0  0  0
    5.8148   -1.5851   -0.1650 C   0  0  0  0  0  0  0  0  0  0  0  0
    4.6287   -0.7458    0.0119 N   0  0  0  0  0  0  0  0  0  0  0  0
    4.5333    0.6419   -0.2368 C   0  0  0  0  0  0  0  0  0  0  0  0
    5.4502    1.3759   -0.5515 O   0  0  0  0  0  0  0  0  0  0  0  0
    3.1319    1.0687   -0.0597 C   0  0  0  0  0  0  0  0  0  0  0  0
    2.6490    2.3650   -0.1524 C   0  0  0  0  0  0  0  0  0  0  0  0
    1.2736    2.5957    0.0570 C   0  0  0  0  0  0  0  0  0  0  0  0
    0.7576    4.0079   -0.0372 C   0  0  0  0  0  0  0  0  0  0  0  0
    0.4166    1.5030    0.3695 C   0  0  0  0  0  0  0  0  0  0  0  0
   -1.0325    1.7175    0.6446 C   0  0  0  0  0  0  0  0  0  0  0  0
   -1.4080    2.6580    1.3309 O   0  0  0  0  0  0  0  0  0  0  0  0
   -1.8819    0.8015    0.0685 N   0  0  0  0  0  0  0  0  0  0  0  0
   -3.3295    0.9855    0.0949 C   0  0  2  0  0  0  0  0  0  0  0  0
   -3.9228    0.7077    1.4755 C   0  0  0  0  0  0  0  0  0  0  0  0
   -5.4475    0.7322    1.4055 C   0  0  0  0  0  0  0  0  0  0  0  0
   -5.9730   -0.2920    0.3984 C   0  0  2  0  0  0  0  0  0  0  0  0
   -5.8779   -1.7343    0.9342 C   0  0  0  0  0  0  0  0  0  0  0  0
   -6.5171   -2.6156    0.0104 O   0  0  0  0  0  0  0  0  0  0  0  0
   -5.2821   -0.1848   -0.8839 N   0  0  0  0  0  0  0  0  0  0  0  0
   -3.9385    0.0653   -0.9770 C   0  0  0  0  0  0  0  0  0  0  0  0
   -3.2829   -0.3614   -1.9276 O   0  0  0  0  0  0  0  0  0  0  0  0
    0.9230    0.1961    0.4600 C   0  0  0  0  0  0  0  0  0  0  0  0
    2.2755    0.0200    0.2358 C   0  0  0  0  0  0  0  0  0  0  0  0
    3.1446   -1.4847    0.2966 S   0  0  0  0  0  6  0  0  0  0  0  0
    3.1037   -1.9833    1.6499 O   0  0  0  0  0  0  0  0  0  0  0  0
    2.7706   -2.2678   -0.8564 O   0  0  0  0  0  0  0  0  0  0  0  0
  1  2  1  0
  2  3  1  0
  3  4  1  0
  4  5  1  0
  5  6  2  0
  5  7  1  0
  7  8  2  0
  8  9  1  0
  9 10  1  0
  9 11  2  0
 11 12  1  0
 12 13  2  0
 12 14  1  0
 15 14  1  1
 15 16  1  0
 16 17  1  0
 17 18  1  0
 18 19  1  1
 19 20  1  0
 18 21  1  0
 21 22  1  0
 22 23  2  0
 11 24  1  0
 24 25  2  0
 25 26  1  0
 26 27  2  0
 26 28  2  0
 26  4  1  0
 25  7  1  0
 22 15  1  0
M  END
>  <energy>  (93) 
-49.34

>  <full_id>  (93) 
MOL00003041-000080-04_1

>  <mol_id>  (93) 
MOL00003041-000080-04

>  <act_mol>  (93) 
0

>  <act_conf>  (93) 
0

$$$$
MOL00002722-002928-03
     RDKit          3D

 34 38  0  0  0  0  0  0  0  0999 V2000
   -4.8827    4.2362    0.5610 C   0  0  0  0  0  0  0  0  0  0  0  0
   -4.5746    3.5131   -0.7376 C   0  0  0  0  0  0  0  0  0  0  0  0
   -3.9085    2.2457   -0.5126 N   0  0  0  0  0  0  0  0  0  0  0  0
   -4.6488    1.1320   -0.3490 N   0  0  0  0  0  0  0  0  0  0  0  0
   -3.7509    0.1579   -0.1398 C   0  0  0  0  0  0  0  0  0  0  0  0
   -4.2210   -1.2211    0.1479 C   0  0  0  0  0  0  0  0  0  0  0  0
   -2.4201    0.6497   -0.2267 C   0  0  0  0  0  0  0  0  0  0  0  0
   -2.5693    1.9999   -0.4242 C   0  0  0  0  0  0  0  0  0  0  0  0
   -1.5540    2.9186   -0.4455 N   0  0  0  0  0  0  0  0  0  0  0  0
   -0.2606    2.4976   -0.2462 C   0  0  0  0  0  0  0  0  0  0  0  0
    0.6099    3.3299    0.0227 O   0  0  0  0  0  0  0  0  0  0  0  0
    0.0675    0.9952   -0.4740 C   0  0  1  0  0  0  0  0  0  0  0  0
    1.3273    0.7167    0.2316 N   0  0  0  0  0  0  0  0  0  0  0  0
    2.2490   -0.1964   -0.2165 C   0  0  0  0  0  0  0  0  0  0  0  0
    2.0579   -0.8879   -1.2113 O   0  0  0  0  0  0  0  0  0  0  0  0
    3.5172   -0.3371    0.5518 C   0  0  0  0  0  0  0  0  0  0  0  0
    4.4667   -1.2636    0.0883 C   0  0  0  0  0  0  0  0  0  0  0  0
    5.6387   -1.4039    0.8021 C   0  0  0  0  0  0  0  0  0  0  0  0
    5.8911   -0.6685    1.9363 C   0  0  0  0  0  0  0  0  0  0  0  0
    4.9867    0.2485    2.4210 C   0  0  0  0  0  0  0  0  0  0  0  0
    3.7923    0.4074    1.7162 C   0  0  0  0  0  0  0  0  0  0  0  0
    2.9078    1.3017    2.1850 F   0  0  0  0  0  0  0  0  0  0  0  0
    7.1005   -0.9596    2.4843 O   0  0  0  0  0  0  0  0  0  0  0  0
    7.5792   -1.9700    1.5716 C   0  0  0  0  0  0  0  0  0  0  0  0
    6.6585   -2.2490    0.4961 O   0  0  0  0  0  0  0  0  0  0  0  0
   -1.0708    0.0292   -0.0368 C   0  0  2  0  0  0  0  0  0  0  0  0
   -1.0613   -1.2817   -0.8251 C   0  0  0  0  0  0  0  0  0  0  0  0
   -1.4234   -1.3061   -2.1905 C   0  0  0  0  0  0  0  0  0  0  0  0
   -1.4086   -2.4938   -2.9240 C   0  0  0  0  0  0  0  0  0  0  0  0
   -1.0160   -3.6821   -2.3192 C   0  0  0  0  0  0  0  0  0  0  0  0
   -0.6267   -3.6819   -0.9812 C   0  0  0  0  0  0  0  0  0  0  0  0
   -0.6374   -2.4935   -0.2336 C   0  0  0  0  0  0  0  0  0  0  0  0
   -0.1857   -2.5562    1.1288 C   0  0  0  0  0  0  0  0  0  0  0  0
    0.1722   -2.5929    2.2328 N   0  0  0  0  0  0  0  0  0  0  0  0
  1  2  1  0
  2  3  1  0
  3  4  1  0
  4  5  2  0
  5  6  1  0
  5  7  1  0
  7  8  2  0
  8  9  1  0
  9 10  1  0
 10 11  2  0
 10 12  1  0
 12 13  1  1
 13 14  1  0
 14 15  2  0
 14 16  1  0
 16 17  2  0
 17 18  1  0
 18 19  2  0
 19 20  1  0
 20 21  2  0
 21 22  1  0
 19 23  1  0
 23 24  1  0
 24 25  1  0
 12 26  1  0
 26 27  1  6
 27 28  2  0
 28 29  1  0
 29 30  2  0
 30 31  1  0
 31 32  2  0
 32 33  1  0
 33 34  3  0
  8  3  1  0
 21 16  1  0
 32 27  1  0
 26  7  1  0
 25 18  1  0
M  END
>  <energy>  (94) 
79.48

>  <full_id>  (94) 
MOL00002722-002928-03_1

>  <mol_id>  (94) 
MOL00002722-002928-03

>  <act_mol>  (94) 
0

>  <act_conf>  (94) 
0

$$$$
MOL00003448-002993-03
     RDKit          3D

 19 19  0  0  0  0  0  0  0  0999 V2000
   -1.3299   -0.2010   -3.5873 C   0  0  0  0  0  0  0  0  0  0  0  0
   -1.7255   -0.8483   -2.2682 C   0  0  0  0  0  0  0  0  0  0  0  0
   -2.2076    0.1975   -1.2594 C   0  0  0  0  0  0  0  0  0  0  0  0
   -2.5668   -0.3632    0.1314 C   0  0  2  0  0  0  0  0  0  0  0  0
   -3.7250   -1.3597    0.0740 C   0  0  0  0  0  0  0  0  0  0  0  0
   -2.9811    0.7626    0.9299 O   0  0  0  0  0  0  0  0  0  0  0  0
   -1.3279   -0.9863    0.8147 C   0  0  0  0  0  0  0  0  0  0  0  0
   -1.2170   -2.1794    1.0882 O   0  0  0  0  0  0  0  0  0  0  0  0
   -0.3405   -0.0485    1.0915 N   0  0  0  0  0  0  0  0  0  0  0  0
    0.7257   -0.4763    1.9243 N   0  0  0  0  0  0  0  0  0  0  0  0
    1.9852   -0.2338    1.2937 C   0  0  0  0  0  0  0  0  0  0  0  0
    2.4401    1.0808    1.0397 C   0  0  0  0  0  0  0  0  0  0  0  0
    1.6566    2.3006    1.4403 C   0  0  0  0  0  0  0  0  0  0  0  0
    3.6661    1.2706    0.3773 C   0  0  0  0  0  0  0  0  0  0  0  0
    4.4502    0.1837    0.0098 C   0  0  0  0  0  0  0  0  0  0  0  0
    5.6309    0.4401   -0.6221 O   0  0  0  0  0  0  0  0  0  0  0  0
    4.0433   -1.1124    0.2873 C   0  0  0  0  0  0  0  0  0  0  0  0
    2.8188   -1.3164    0.9291 C   0  0  0  0  0  0  0  0  0  0  0  0
    2.3098   -3.1149    1.2893 Br  0  0  0  0  0  0  0  0  0  0  0  0
  1  2  1  0
  2  3  1  0
  3  4  1  0
  4  5  1  6
  4  6  1  0
  4  7  1  0
  7  8  2  0
  7  9  1  0
  9 10  1  0
 10 11  1  0
 11 12  2  0
 12 13  1  0
 12 14  1  0
 14 15  2  0
 15 16  1  0
 15 17  1  0
 17 18  2  0
 18 19  1  0
 18 11  1  0
M  END
>  <energy>  (95) 
83.60

>  <full_id>  (95) 
MOL00003448-002993-03_1

>  <mol_id>  (95) 
MOL00003448-002993-03

>  <act_mol>  (95) 
0

>  <act_conf>  (95) 
0

$$$$
MOL00003238-001018-03
     RDKit          3D

 28 30  0  0  0  0  0  0  0  0999 V2000
   -2.0927    3.5609   -1.3437 C   0  0  0  0  0  0  0  0  0  0  0  0
   -2.5149    2.3397   -2.0218 N   0  0  0  0  0  0  0  0  0  0  0  0
   -1.9322    1.1289   -1.3833 C   0  0  1  0  0  0  0  0  0  0  0  0
   -2.6884   -0.1198   -1.8757 C   0  0  0  0  0  0  0  0  0  0  0  0
   -2.2952   -1.3774   -1.1561 C   0  0  0  0  0  0  0  0  0  0  0  0
   -1.5502   -2.4165   -1.6787 C   0  0  0  0  0  0  0  0  0  0  0  0
   -1.3808   -3.3612   -0.7034 N   0  0  0  0  0  0  0  0  0  0  0  0
   -1.9942   -2.9569    0.4592 C   0  0  0  0  0  0  0  0  0  0  0  0
   -2.0676   -3.5901    1.7064 C   0  0  0  0  0  0  0  0  0  0  0  0
   -2.7740   -2.9417    2.7244 C   0  0  0  0  0  0  0  0  0  0  0  0
   -3.3790   -1.7131    2.4870 C   0  0  0  0  0  0  0  0  0  0  0  0
   -4.0714   -1.0652    3.4695 O   0  0  0  0  0  0  0  0  0  0  0  0
   -3.3030   -1.0898    1.2413 C   0  0  0  0  0  0  0  0  0  0  0  0
   -2.5927   -1.7226    0.2016 C   0  0  0  0  0  0  0  0  0  0  0  0
   -0.4380    1.0082   -1.7501 C   0  0  0  0  0  0  0  0  0  0  0  0
    0.0354    1.4320   -2.8077 O   0  0  0  0  0  0  0  0  0  0  0  0
    0.3380    0.3842   -0.7805 N   0  0  0  0  0  0  0  0  0  0  0  0
    1.6605    0.0659   -1.1679 N   0  0  0  0  0  0  0  0  0  0  0  0
    2.6511    0.5563   -0.2719 C   0  0  0  0  0  0  0  0  0  0  0  0
    2.4033    0.6484    1.1114 C   0  0  0  0  0  0  0  0  0  0  0  0
    3.3956    1.0593    2.0061 C   0  0  0  0  0  0  0  0  0  0  0  0
    4.6706    1.3590    1.5240 C   0  0  0  0  0  0  0  0  0  0  0  0
    5.7194    1.7909    2.4562 N   0  0  0  0  0  4  0  0  0  0  0  0
    6.8392    2.0438    1.9889 O   0  0  0  0  0  0  0  0  0  0  0  0
    5.4244    1.8763    3.6571 O   0  0  0  0  0  1  0  0  0  0  0  0
    4.9586    1.2356    0.1597 C   0  0  0  0  0  0  0  0  0  0  0  0
    3.9610    0.8156   -0.7410 C   0  0  0  0  0  0  0  0  0  0  0  0
    4.3197    0.6767   -2.1979 C   0  0  0  0  0  0  0  0  0  0  0  0
  1  2  1  0
  2  3  1  0
  3  4  1  6
  4  5  1  0
  5  6  2  0
  6  7  1  0
  7  8  1  0
  8  9  2  0
  9 10  1  0
 10 11  2  0
 11 12  1  0
 11 13  1  0
 13 14  2  0
  3 15  1  0
 15 16  2  0
 15 17  1  0
 17 18  1  0
 18 19  1  0
 19 20  2  0
 20 21  1  0
 21 22  2  0
 22 23  1  0
 23 24  2  0
 23 25  1  0
 22 26  1  0
 26 27  2  0
 27 28  1  0
 14  5  1  0
 27 19  1  0
 14  8  1  0
M  CHG  2  23   1  25  -1
M  END
>  <energy>  (96) 
127.86

>  <full_id>  (96) 
MOL00003238-001018-03_1

>  <mol_id>  (96) 
MOL00003238-001018-03

>  <act_mol>  (96) 
0

>  <act_conf>  (96) 
0

$$$$
MOL00002937-001766-03
     RDKit          3D

 33 36  0  0  0  0  0  0  0  0999 V2000
    2.5927   -3.8622   -0.1323 C   0  0  0  0  0  0  0  0  0  0  0  0
    2.8904   -2.6314   -0.9762 C   0  0  0  0  0  0  0  0  0  0  0  0
    3.0860   -1.4246   -0.1605 N   0  0  0  0  0  0  0  0  0  0  0  0
    4.3947   -1.2454    0.4741 C   0  0  0  0  0  0  0  0  0  0  0  0
    5.4542   -0.6668   -0.4701 C   0  0  0  0  0  0  0  0  0  0  0  0
    5.2369    0.7908   -0.8937 C   0  0  0  0  0  0  0  0  0  0  0  0
    5.3260    1.8181    0.2384 C   0  0  0  0  0  0  0  0  0  0  0  0
    6.6323    1.8781    0.8634 N   0  0  0  0  0  0  0  0  0  0  0  0
    7.7753    2.3830    0.3089 C   0  0  0  0  0  0  0  0  0  0  0  0
    8.7393    2.2187    1.2747 C   0  0  0  0  0  0  0  0  0  0  0  0
    8.2076    1.6404    2.3988 N   0  0  0  0  0  0  0  0  0  0  0  0
    6.9345    1.4603    2.1274 C   0  0  0  0  0  0  0  0  0  0  0  0
    2.1310   -0.4197    0.0014 C   0  0  0  0  0  0  0  0  0  0  0  0
    2.3374    0.6313    0.6030 O   0  0  0  0  0  0  0  0  0  0  0  0
    0.8004   -0.5926   -0.6080 C   0  0  0  0  0  0  0  0  0  0  0  0
    0.4821    0.1399   -1.7540 C   0  0  0  0  0  0  0  0  0  0  0  0
   -0.7809    0.0001   -2.3324 C   0  0  0  0  0  0  0  0  0  0  0  0
   -1.7304   -0.8639   -1.7643 C   0  0  0  0  0  0  0  0  0  0  0  0
   -3.1018   -1.0110   -2.3770 C   0  0  0  0  0  0  0  0  0  0  0  0
   -4.1069   -0.4137   -1.5309 N   0  0  0  0  0  0  0  0  0  0  0  0
   -5.0270   -1.1648   -0.8435 C   0  0  0  0  0  0  0  0  0  0  0  0
   -5.1051   -2.3847   -0.9582 O   0  0  0  0  0  0  0  0  0  0  0  0
   -5.9000   -0.4233    0.0391 C   0  0  0  0  0  0  0  0  0  0  0  0
   -5.9907    0.9204    0.3628 C   0  0  0  0  0  0  0  0  0  0  0  0
   -7.0459    1.0878    1.3045 C   0  0  0  0  0  0  0  0  0  0  0  0
   -7.5888    2.1970    1.9817 C   0  0  0  0  0  0  0  0  0  0  0  0
   -8.6600    2.0030    2.8627 C   0  0  0  0  0  0  0  0  0  0  0  0
   -9.1882    0.7300    3.0711 C   0  0  0  0  0  0  0  0  0  0  0  0
   -8.6624   -0.3847    2.4116 C   0  0  0  0  0  0  0  0  0  0  0  0
   -7.5909   -0.1723    1.5364 C   0  0  0  0  0  0  0  0  0  0  0  0
   -6.8814   -1.0622    0.7679 N   0  0  0  0  0  0  0  0  0  0  0  0
   -1.3999   -1.5746   -0.5986 C   0  0  0  0  0  0  0  0  0  0  0  0
   -0.1401   -1.4355   -0.0146 C   0  0  0  0  0  0  0  0  0  0  0  0
  1  2  1  0
  2  3  1  0
  3  4  1  0
  4  5  1  0
  5  6  1  0
  6  7  1  0
  7  8  1  0
  8  9  1  0
  9 10  2  0
 10 11  1  0
 11 12  2  0
  3 13  1  0
 13 14  2  0
 13 15  1  0
 15 16  2  0
 16 17  1  0
 17 18  2  0
 18 19  1  0
 19 20  1  0
 20 21  1  0
 21 22  2  0
 21 23  1  0
 23 24  2  0
 24 25  1  0
 25 26  2  0
 26 27  1  0
 27 28  2  0
 28 29  1  0
 29 30  2  0
 30 31  1  0
 18 32  1  0
 32 33  2  0
 12  8  1  0
 33 15  1  0
 31 23  1  0
 30 25  1  0
M  END
>  <energy>  (97) 
-10.74

>  <full_id>  (97) 
MOL00002937-001766-03_1

>  <mol_id>  (97) 
MOL00002937-001766-03

>  <act_mol>  (97) 
0

>  <act_conf>  (97) 
0

$$$$
MOL00003319-001595-03
     RDKit          3D

 28 31  0  0  0  0  0  0  0  0999 V2000
    1.2931   -0.2026    1.5734 O   0  0  0  0  0  0  0  0  0  0  0  0
    1.7356   -0.3771    0.4391 C   0  0  0  0  0  0  0  0  0  0  0  0
    0.9407   -0.4017   -0.6868 N   0  0  0  0  0  0  0  0  0  0  0  0
   -0.4268   -0.2675   -0.7040 C   0  0  0  0  0  0  0  0  0  0  0  0
   -1.3403   -0.1145    0.3617 C   0  0  0  0  0  0  0  0  0  0  0  0
   -2.5854   -0.0290   -0.2254 C   0  0  0  0  0  0  0  0  0  0  0  0
   -3.9554    0.1411    0.3713 C   0  0  0  0  0  0  0  0  0  0  0  0
   -4.5231    1.5198   -0.0026 C   0  0  0  0  0  0  0  0  0  0  0  0
   -5.9139    1.8265    0.5535 C   0  0  0  0  0  0  0  0  0  0  0  0
   -7.0178    1.0546   -0.1611 C   0  0  0  0  0  0  0  0  0  0  0  0
   -7.3018   -0.3351    0.3992 C   0  0  0  0  0  0  0  0  0  0  0  0
   -6.1036   -1.1534    0.8692 C   0  0  0  0  0  0  0  0  0  0  0  0
   -4.8589   -1.0471   -0.0090 C   0  0  0  0  0  0  0  0  0  0  0  0
   -2.3518   -0.1327   -1.5688 N   0  0  0  0  0  0  0  0  0  0  0  0
   -1.0560   -0.2793   -1.8814 N   0  0  0  0  0  0  0  0  0  0  0  0
    3.1626   -0.5516    0.1913 C   0  0  0  0  0  0  0  0  0  0  0  0
    4.2852    0.0748    1.3333 S   0  0  0  0  0  0  0  0  0  0  0  0
    5.6045   -0.4626    0.3727 C   0  0  0  0  0  0  0  0  0  0  0  0
    7.0109   -0.2349    0.7629 C   0  0  0  0  0  0  0  0  0  0  0  0
    7.3943    0.4529    1.9200 C   0  0  0  0  0  0  0  0  0  0  0  0
    8.7454    0.6107    2.1908 C   0  0  0  0  0  0  0  0  0  0  0  0
    9.7309    0.1388    1.4015 N   0  0  0  0  0  0  0  0  0  0  0  0
    9.3507   -0.5221    0.2905 C   0  0  0  0  0  0  0  0  0  0  0  0
    8.0282   -0.7298   -0.0641 C   0  0  0  0  0  0  0  0  0  0  0  0
    5.2451   -1.0921   -0.7298 N   0  0  0  0  0  0  0  0  0  0  0  0
    3.8617   -1.1753   -0.8310 C   0  0  0  0  0  0  0  0  0  0  0  0
    3.2982   -1.8976   -2.0074 C   0  0  0  0  0  0  0  0  0  0  0  0
    2.6132   -0.9888   -2.8660 O   0  0  0  0  0  0  0  0  0  0  0  0
  1  2  2  0
  2  3  1  0
  3  4  1  0
  4  5  1  0
  5  6  2  0
  7  6  1  0
  7  8  1  0
  8  9  1  0
  9 10  1  0
 10 11  1  0
 11 12  1  0
 12 13  1  0
  6 14  1  0
 14 15  1  0
  2 16  1  0
 16 17  1  0
 17 18  1  0
 18 19  1  0
 19 20  2  0
 20 21  1  0
 21 22  2  0
 22 23  1  0
 23 24  2  0
 18 25  2  0
 25 26  1  0
 26 27  1  0
 27 28  1  0
 15  4  2  0
 26 16  2  0
 13  7  1  0
 24 19  1  0
M  END
>  <energy>  (98) 
-11.53

>  <full_id>  (98) 
MOL00003319-001595-03_1

>  <mol_id>  (98) 
MOL00003319-001595-03

>  <act_mol>  (98) 
0

>  <act_conf>  (98) 
0

$$$$
MOL00003404-001403-03
     RDKit          3D

 26 28  0  0  0  0  0  0  0  0999 V2000
   -6.5815    0.6548   -1.4569 C   0  0  0  0  0  0  0  0  0  0  0  0
   -5.3648    1.0571   -0.6772 C   0  0  0  0  0  0  0  0  0  0  0  0
   -5.4087    2.1547    0.1861 C   0  0  0  0  0  0  0  0  0  0  0  0
   -4.2845    2.5042    0.9321 C   0  0  0  0  0  0  0  0  0  0  0  0
   -3.1081    1.7564    0.8303 C   0  0  0  0  0  0  0  0  0  0  0  0
   -3.0463    0.6509   -0.0179 C   0  0  0  0  0  0  0  0  0  0  0  0
   -1.9073   -0.1665   -0.1704 N   0  0  0  0  0  0  0  0  0  0  0  0
   -0.6519    0.0179    0.3746 C   0  0  0  0  0  0  0  0  0  0  0  0
   -0.2949    0.9969    1.0254 O   0  0  0  0  0  0  0  0  0  0  0  0
    0.3066   -1.0586    0.0691 C   0  0  0  0  0  0  0  0  0  0  0  0
    1.6901   -0.8677    0.1819 C   0  0  0  0  0  0  0  0  0  0  0  0
    2.3108    0.3010    0.5995 N   0  0  0  0  0  0  0  0  0  0  0  0
    3.6668    0.5567    0.6911 C   0  0  0  0  0  0  0  0  0  0  0  0
    4.5920   -0.1951    0.4075 O   0  0  0  0  0  0  0  0  0  0  0  0
    3.9203    1.9523    1.2440 C   0  0  0  0  0  0  0  0  0  0  0  0
    5.3953    2.3322    1.1892 C   0  0  0  0  0  0  0  0  0  0  0  0
    5.8350    2.5841   -0.2263 C   0  0  0  0  0  0  0  0  0  0  0  0
    5.1213    2.8270   -1.1850 O   0  0  0  0  0  0  0  0  0  0  0  0
    7.1761    2.5784   -0.3513 O   0  0  0  0  0  0  0  0  0  0  0  0
    2.5985   -2.2533   -0.2484 S   0  0  0  0  0  0  0  0  0  0  0  0
    1.2040   -3.1173   -0.5307 C   0  0  0  0  0  0  0  0  0  0  0  0
    0.0521   -2.4063   -0.3346 C   0  0  0  0  0  0  0  0  0  0  0  0
   -1.1326   -3.2757   -0.5762 C   0  0  0  0  0  0  0  0  0  0  0  0
   -0.5101   -4.7057   -0.5950 C   0  0  0  0  0  0  0  0  0  0  0  0
    0.9988   -4.5278   -0.9324 C   0  0  0  0  0  0  0  0  0  0  0  0
   -4.1843    0.3034   -0.7614 C   0  0  0  0  0  0  0  0  0  0  0  0
  1  2  1  0
  2  3  2  0
  3  4  1  0
  4  5  2  0
  5  6  1  0
  6  7  1  0
  7  8  1  0
  8  9  2  0
  8 10  1  0
 10 11  2  0
 11 12  1  0
 12 13  1  0
 13 14  2  0
 13 15  1  0
 15 16  1  0
 16 17  1  0
 17 18  2  0
 17 19  1  0
 11 20  1  0
 20 21  1  0
 21 22  2  0
 22 23  1  0
 23 24  1  0
 24 25  1  0
  6 26  2  0
 26  2  1  0
 22 10  1  0
 25 21  1  0
M  END
>  <energy>  (99) 
-20.49

>  <full_id>  (99) 
MOL00003404-001403-03_1

>  <mol_id>  (99) 
MOL00003404-001403-03

>  <act_mol>  (99) 
0

>  <act_conf>  (99) 
0

$$$$
MOL00003257-000105-03
     RDKit          3D

 28 31  0  0  0  0  0  0  0  0999 V2000
    4.5946    0.0450    3.5663 C   0  0  0  0  0  0  0  0  0  0  0  0
    5.1366   -1.0530    2.6559 C   0  0  0  0  0  0  0  0  0  0  0  0
    4.3430   -1.3863    1.4702 N   0  0  0  0  0  0  0  0  0  0  0  0
    3.0156   -1.9345    1.7866 C   0  0  0  0  0  0  0  0  0  0  0  0
    2.2511   -2.3521    0.5091 C   0  0  0  0  0  0  0  0  0  0  0  0
    2.1030   -1.2268   -0.4391 N   0  0  0  0  0  0  0  0  0  0  0  0
    1.4046   -1.6772   -1.6569 C   0  0  0  0  0  0  0  0  0  0  0  0
    0.8963   -0.5434   -2.4794 C   0  0  0  0  0  0  0  0  0  0  0  0
    1.0736   -0.3614   -3.7743 N   0  0  0  0  0  0  0  0  0  0  0  0
    0.4273    0.8053   -4.0944 N   0  0  0  0  0  0  0  0  0  0  0  0
   -0.1320    1.3481   -3.0238 N   0  0  0  0  0  0  0  0  0  0  0  0
    0.1369    0.4992   -2.0123 N   0  0  0  0  0  0  0  0  0  0  0  0
   -0.1921    0.8733   -0.6533 C   0  0  0  0  0  0  0  0  0  0  0  0
   -1.0592   -0.1457    0.0574 C   0  0  0  0  0  0  0  0  0  0  0  0
   -1.5600   -1.1009   -0.5403 O   0  0  0  0  0  0  0  0  0  0  0  0
   -1.2704    0.0493    1.4224 N   0  0  0  0  0  0  0  0  0  0  0  0
   -0.8885    1.2612    2.1389 C   0  0  0  0  0  0  0  0  0  0  0  0
   -2.2382   -0.8227    2.0957 C   0  0  0  0  0  0  0  0  0  0  0  0
   -3.5925   -0.1856    2.1254 C   0  0  0  0  0  0  0  0  0  0  0  0
   -3.9653    0.6154    3.1516 N   0  0  0  0  0  0  0  0  0  0  0  0
   -5.2333    0.9953    2.8507 N   0  0  0  0  0  0  0  0  0  0  0  0
   -5.6428    0.4660    1.6827 C   0  0  0  0  0  0  0  0  0  0  0  0
   -4.6241   -0.2861    1.1862 C   0  0  0  0  0  0  0  0  0  0  0  0
   -4.9797   -0.9052   -0.1010 C   0  0  0  0  0  0  0  0  0  0  0  0
   -6.3200   -0.1599   -0.4548 C   0  0  0  0  0  0  0  0  0  0  0  0
   -6.8573    0.5071    0.8613 C   0  0  0  0  0  0  0  0  0  0  0  0
    3.4488   -0.6956   -0.7600 C   0  0  0  0  0  0  0  0  0  0  0  0
    4.2217   -0.2757    0.5129 C   0  0  0  0  0  0  0  0  0  0  0  0
  1  2  1  0
  2  3  1  0
  3  4  1  0
  4  5  1  0
  5  6  1  0
  6  7  1  0
  7  8  1  0
  8  9  2  0
  9 10  1  0
 10 11  2  0
 11 12  1  0
 12 13  1  0
 13 14  1  0
 14 15  2  0
 14 16  1  0
 16 17  1  0
 16 18  1  0
 18 19  1  0
 19 20  2  0
 20 21  1  0
 21 22  1  0
 22 23  2  0
 23 24  1  0
 24 25  1  0
 25 26  1  0
  6 27  1  0
 27 28  1  0
 28  3  1  0
 12  8  1  0
 23 19  1  0
 26 22  1  0
M  END
>  <energy>  (100) 
90.46

>  <full_id>  (100) 
MOL00003257-000105-03_1

>  <mol_id>  (100) 
MOL00003257-000105-03

>  <act_mol>  (100) 
0

>  <act_conf>  (100) 
0

$$$$
MOL00003345-000927-03
     RDKit          3D

 28 30  0  0  0  0  0  0  0  0999 V2000
    3.1244   -3.5267   -2.7293 C   0  0  0  0  0  0  0  0  0  0  0  0
    3.2205   -3.7738   -1.2345 C   0  0  0  0  0  0  0  0  0  0  0  0
    3.4493   -2.5453   -0.4912 N   0  0  0  0  0  0  0  0  0  0  0  0
    2.3810   -1.8104   -0.1143 N   0  0  0  0  0  0  0  0  0  0  0  0
    2.9146   -0.7496    0.5323 C   0  0  0  0  0  0  0  0  0  0  0  0
    2.0744    0.3302    1.0620 C   0  0  0  0  0  0  0  0  0  0  0  0
    2.5337    1.3781    1.4990 O   0  0  0  0  0  0  0  0  0  0  0  0
    0.7261    0.0537    0.9788 N   0  0  0  0  0  0  0  0  0  0  0  0
   -0.3017    1.0418    1.2625 C   0  0  1  0  0  0  0  0  0  0  0  0
   -0.4922    1.9973    0.0774 C   0  0  0  0  0  0  0  0  0  0  0  0
   -1.1815    1.3221   -1.1113 C   0  0  0  0  0  0  0  0  0  0  0  0
   -2.5161    0.6713   -0.7208 C   0  0  2  0  0  0  0  0  0  0  0  0
   -3.4049    1.7319   -0.3393 O   0  0  0  0  0  0  0  0  0  0  0  0
   -4.7473    1.4608   -0.4937 C   0  0  0  0  0  0  0  0  0  0  0  0
   -5.6411    2.4759   -0.1841 C   0  0  0  0  0  0  0  0  0  0  0  0
   -6.9839    2.3263   -0.2863 N   0  0  0  0  0  0  0  0  0  0  0  0
   -7.3897    1.1082   -0.7121 C   0  0  0  0  0  0  0  0  0  0  0  0
   -6.5023    0.0811   -1.0233 C   0  0  0  0  0  0  0  0  0  0  0  0
   -7.0107   -1.2466   -1.4890 C   0  0  0  0  0  0  0  0  0  0  0  0
   -5.1595    0.2450   -0.9167 N   0  0  0  0  0  0  0  0  0  0  0  0
   -2.3117   -0.3034    0.4470 C   0  0  0  0  0  0  0  0  0  0  0  0
   -1.6191    0.3575    1.6427 C   0  0  0  0  0  0  0  0  0  0  0  0
    4.3193   -0.8455    0.5693 C   0  0  0  0  0  0  0  0  0  0  0  0
    5.2229    0.0656    1.1863 N   0  0  0  0  0  4  0  0  0  0  0  0
    5.1909    0.1255    2.4204 O   0  0  0  0  0  0  0  0  0  0  0  0
    6.0045    0.6617    0.4349 O   0  0  0  0  0  1  0  0  0  0  0  0
    4.6526   -2.0085   -0.1056 C   0  0  0  0  0  0  0  0  0  0  0  0
    5.9672   -2.6336   -0.3969 C   0  0  0  0  0  0  0  0  0  0  0  0
  1  2  1  0
  2  3  1  0
  3  4  1  0
  4  5  2  0
  5  6  1  0
  6  7  2  0
  6  8  1  0
  9  8  1  6
  9 10  1  0
 10 11  1  0
 11 12  1  0
 12 13  1  1
 13 14  1  0
 14 15  2  0
 15 16  1  0
 16 17  2  0
 17 18  1  0
 18 19  1  0
 18 20  2  0
 12 21  1  0
 21 22  1  0
  5 23  1  0
 23 24  1  0
 24 25  2  0
 24 26  1  0
 23 27  2  0
 27 28  1  0
 27  3  1  0
 22  9  1  0
 20 14  1  0
M  CHG  2  24   1  26  -1
M  END
>  <energy>  (101) 
79.89

>  <full_id>  (101) 
MOL00003345-000927-03_1

>  <mol_id>  (101) 
MOL00003345-000927-03

>  <act_mol>  (101) 
0

>  <act_conf>  (101) 
0

$$$$
MOL00002921-000288-04
     RDKit          3D

 35 36  0  0  0  0  0  0  0  0999 V2000
   -9.2066    4.4889    2.5488 C   0  0  0  0  0  0  0  0  0  0  0  0
   -8.9411    3.6037    1.4591 O   0  0  0  0  0  0  0  0  0  0  0  0
   -8.2943    2.4583    1.8203 C   0  0  0  0  0  0  0  0  0  0  0  0
   -7.9498    2.1764    2.9592 O   0  0  0  0  0  0  0  0  0  0  0  0
   -8.0589    1.6057    0.5973 C   0  0  0  0  0  0  0  0  0  0  0  0
   -7.4352    0.2645    0.9849 C   0  0  0  0  0  0  0  0  0  0  0  0
   -7.2302   -0.6401   -0.1562 N   0  0  0  0  0  0  0  0  0  0  0  0
   -6.0212   -0.3060   -0.9634 C   0  0  1  0  0  0  0  0  0  0  0  0
   -4.7780   -0.9456   -0.3351 C   0  0  0  0  0  0  0  0  0  0  0  0
   -3.5011   -0.3155   -0.8700 C   0  0  0  0  0  0  0  0  0  0  0  0
   -3.5146    0.7142   -1.5362 O   0  0  0  0  0  0  0  0  0  0  0  0
   -2.3783   -1.0206   -0.4656 N   0  0  0  0  0  0  0  0  0  0  0  0
   -1.0298   -0.7344   -0.7617 C   0  0  0  0  0  0  0  0  0  0  0  0
   -0.6139    0.3206   -1.5726 C   0  0  0  0  0  0  0  0  0  0  0  0
    0.7482    0.5399   -1.8151 C   0  0  0  0  0  0  0  0  0  0  0  0
    1.7255   -0.2936   -1.2525 C   0  0  0  0  0  0  0  0  0  0  0  0
    3.2107   -0.0634   -1.4807 C   0  0  1  0  0  0  0  0  0  0  0  0
    3.5535   -0.0459   -2.9752 C   0  0  0  0  0  0  0  0  0  0  0  0
    3.6907    1.2024   -0.8856 N   0  0  0  0  0  0  0  0  0  0  0  0
    3.7189    1.1562    0.5973 C   0  0  0  0  0  0  0  0  0  0  0  0
    4.8909    0.3131    1.1222 C   0  0  0  0  0  0  0  0  0  0  0  0
    4.8212   -0.2681    2.2004 O   0  0  0  0  0  0  0  0  0  0  0  0
    5.9772    0.3537    0.2665 N   0  0  0  0  0  0  0  0  0  0  0  0
    7.2344   -0.2523    0.4171 C   0  0  0  0  0  0  0  0  0  0  0  0
    8.1392   -0.1213   -0.6423 C   0  0  0  0  0  0  0  0  0  0  0  0
    9.4129   -0.6938   -0.5687 C   0  0  0  0  0  0  0  0  0  0  0  0
    9.8075   -1.3963    0.5735 C   0  0  0  0  0  0  0  0  0  0  0  0
   11.1598   -2.0404    0.6457 C   0  0  0  0  0  0  0  0  0  0  0  0
    8.8984   -1.5364    1.6274 C   0  0  0  0  0  0  0  0  0  0  0  0
    7.6233   -0.9640    1.5516 C   0  0  0  0  0  0  0  0  0  0  0  0
    1.3014   -1.3533   -0.4388 C   0  0  0  0  0  0  0  0  0  0  0  0
   -0.0598   -1.5717   -0.1995 C   0  0  0  0  0  0  0  0  0  0  0  0
   -6.2745   -0.8234   -2.3920 C   0  0  0  0  0  0  0  0  0  0  0  0
   -7.3266   -0.6841   -3.0049 O   0  0  0  0  0  0  0  0  0  0  0  0
   -5.2440   -1.4622   -2.9733 O   0  0  0  0  0  0  0  0  0  0  0  0
  1  2  1  0
  2  3  1  0
  3  4  2  0
  3  5  1  0
  5  6  1  0
  6  7  1  0
  7  8  1  0
  8  9  1  1
  9 10  1  0
 10 11  2  0
 10 12  1  0
 12 13  1  0
 13 14  2  0
 14 15  1  0
 15 16  2  0
 16 17  1  0
 17 18  1  6
 17 19  1  0
 19 20  1  0
 20 21  1  0
 21 22  2  0
 21 23  1  0
 23 24  1  0
 24 25  2  0
 25 26  1  0
 26 27  2  0
 27 28  1  0
 27 29  1  0
 29 30  2  0
 16 31  1  0
 31 32  2  0
  8 33  1  0
 33 34  2  0
 33 35  1  0
 32 13  1  0
 30 24  1  0
M  END
>  <energy>  (102) 
40.31

>  <full_id>  (102) 
MOL00002921-000288-04_1

>  <mol_id>  (102) 
MOL00002921-000288-04

>  <act_mol>  (102) 
0

>  <act_conf>  (102) 
0

$$$$
MOL00003536-001553-02
     RDKit          3D

 29 32  0  0  0  0  0  0  0  0999 V2000
   -2.6038   -2.3366   -2.7869 C   0  0  0  0  0  0  0  0  0  0  0  0
   -1.6875   -1.2958   -3.1113 O   0  0  0  0  0  0  0  0  0  0  0  0
   -1.6428   -0.2061   -2.2763 C   0  0  0  0  0  0  0  0  0  0  0  0
   -2.5630    0.0407   -1.2511 C   0  0  0  0  0  0  0  0  0  0  0  0
   -2.4399    1.1792   -0.4503 C   0  0  0  0  0  0  0  0  0  0  0  0
   -1.3780    2.0592   -0.6557 C   0  0  0  0  0  0  0  0  0  0  0  0
   -1.3116    3.2704    0.1861 C   0  0  0  0  0  0  0  0  0  0  0  0
   -0.2749    3.8704    0.6971 N   0  0  0  0  0  0  0  0  0  0  0  0
    0.9452    3.2528    0.6119 N   0  0  0  0  0  0  0  0  0  0  0  0
    1.3006    2.1956    1.3907 C   0  0  0  0  0  0  0  0  0  0  0  0
    0.3561    1.3450    1.9090 N   0  0  0  0  0  0  0  0  0  0  0  0
    1.0643    0.5050    2.6174 C   0  0  0  0  0  0  0  0  0  0  0  0
    0.4469   -0.8109    3.5438 S   0  0  0  0  0  0  0  0  0  0  0  0
   -0.6894   -1.5397    2.3205 C   0  0  0  0  0  0  0  0  0  0  0  0
    0.0531   -2.2936    1.2862 C   0  0  0  0  0  0  0  0  0  0  0  0
    0.5323   -3.5238    1.3275 N   0  0  0  0  0  0  0  0  0  0  0  0
    1.1641   -3.7306    0.1195 N   0  0  0  0  0  0  0  0  0  0  0  0
    1.0383   -2.6096   -0.5700 C   0  0  0  0  0  0  0  0  0  0  0  0
    1.6479   -2.3851   -1.9797 C   0  0  0  0  0  0  0  0  0  0  0  0
    2.8925   -1.5452   -2.1021 C   0  0  0  0  0  0  0  0  0  0  0  0
    2.9672   -3.0261   -2.3301 C   0  0  0  0  0  0  0  0  0  0  0  0
    0.3342   -1.6510    0.1095 O   0  0  0  0  0  0  0  0  0  0  0  0
    2.3852    0.8296    2.5307 N   0  0  0  0  0  0  0  0  0  0  0  0
    3.5158    0.1857    3.1464 C   0  0  0  0  0  0  0  0  0  0  0  0
    2.5611    1.9011    1.7326 N   0  0  0  0  0  0  0  0  0  0  0  0
   -0.4672    1.8385   -1.6899 C   0  0  0  0  0  0  0  0  0  0  0  0
   -0.6012    0.7136   -2.5119 C   0  0  0  0  0  0  0  0  0  0  0  0
    0.2354    0.4213   -3.5643 O   0  0  0  0  0  0  0  0  0  0  0  0
    1.1209    1.4490   -3.9846 C   0  0  0  0  0  0  0  0  0  0  0  0
  1  2  1  0
  2  3  1  0
  3  4  2  0
  4  5  1  0
  5  6  2  0
  6  7  1  0
  7  8  2  0
  8  9  1  0
  9 10  1  0
 10 11  1  0
 11 12  2  0
 12 13  1  0
 13 14  1  0
 14 15  1  0
 15 16  2  0
 16 17  1  0
 17 18  2  0
 19 18  1  0
 19 20  1  0
 20 21  1  0
 18 22  1  0
 12 23  1  0
 23 24  1  0
 23 25  1  0
  6 26  1  0
 26 27  2  0
 27 28  1  0
 28 29  1  0
 27  3  1  0
 25 10  2  0
 22 15  1  0
 21 19  1  0
M  END
>  <energy>  (103) 
71.99

>  <full_id>  (103) 
MOL00003536-001553-02_1

>  <mol_id>  (103) 
MOL00003536-001553-02

>  <act_mol>  (103) 
0

>  <act_conf>  (103) 
0

$$$$
MOL00003712-000099-02
     RDKit          3D

 28 31  0  0  0  0  0  0  0  0999 V2000
   -4.2534    1.4142    4.7288 C   0  0  0  0  0  0  0  0  0  0  0  0
   -3.6553    0.7848    3.4687 C   0  0  0  0  0  0  0  0  0  0  0  0
   -3.9653   -0.7113    3.4242 C   0  0  0  0  0  0  0  0  0  0  0  0
   -4.1664    1.4611    2.2328 C   0  0  0  0  0  0  0  0  0  0  0  0
   -5.3569    2.0115    2.0755 N   0  0  0  0  0  0  0  0  0  0  0  0
   -5.4352    2.5256    0.8036 N   0  0  0  0  0  0  0  0  0  0  0  0
   -4.2961    2.2740    0.2020 C   0  0  0  0  0  0  0  0  0  0  0  0
   -3.8184    2.5440   -1.1017 C   0  0  0  0  0  0  0  0  0  0  0  0
   -2.5785    2.1488   -1.4524 C   0  0  0  0  0  0  0  0  0  0  0  0
   -1.6660    1.4464   -0.5258 C   0  0  0  0  0  0  0  0  0  0  0  0
   -0.3828    1.0496   -0.9567 N   0  0  0  0  0  0  0  0  0  0  0  0
    0.0737    1.4212   -2.2996 C   0  0  0  0  0  0  0  0  0  0  0  0
    0.5402    0.3820   -0.1042 C   0  0  0  0  0  0  0  0  0  0  0  0
    0.5479    0.5258    1.1203 O   0  0  0  0  0  0  0  0  0  0  0  0
    1.5275   -0.5442   -0.7151 C   0  0  0  0  0  0  0  0  0  0  0  0
    2.6968   -1.0413   -0.0728 C   0  0  0  0  0  0  0  0  0  0  0  0
    3.3039   -1.9052   -0.9636 C   0  0  0  0  0  0  0  0  0  0  0  0
    4.5265   -2.7128   -0.8797 C   0  0  0  0  0  0  0  0  0  0  0  0
    5.3114   -2.7017    0.2833 C   0  0  0  0  0  0  0  0  0  0  0  0
    6.4791   -3.4692    0.3710 C   0  0  0  0  0  0  0  0  0  0  0  0
    6.8826   -4.2609   -0.7023 C   0  0  0  0  0  0  0  0  0  0  0  0
    6.1183   -4.2860   -1.8651 C   0  0  0  0  0  0  0  0  0  0  0  0
    4.9565   -3.5195   -1.9456 C   0  0  0  0  0  0  0  0  0  0  0  0
    4.2469   -3.5714   -3.0856 F   0  0  0  0  0  0  0  0  0  0  0  0
    2.4733   -1.8938   -2.0559 N   0  0  0  0  0  0  0  0  0  0  0  0
    1.4010   -1.0938   -1.9373 N   0  0  0  0  0  0  0  0  0  0  0  0
   -2.1689    1.1756    0.7007 C   0  0  0  0  0  0  0  0  0  0  0  0
   -3.4504    1.5937    1.0580 N   0  0  0  0  0  0  0  0  0  0  0  0
  2  1  1  0
  2  3  1  0
  2  4  1  0
  4  5  2  0
  5  6  1  0
  6  7  2  0
  7  8  1  0
  8  9  2  0
  9 10  1  0
 10 11  1  0
 11 12  1  0
 11 13  1  0
 13 14  2  0
 13 15  1  0
 15 16  1  0
 16 17  2  0
 17 18  1  0
 18 19  2  0
 19 20  1  0
 20 21  2  0
 21 22  1  0
 22 23  2  0
 23 24  1  0
 17 25  1  0
 25 26  1  0
 10 27  2  0
 27 28  1  0
 28  4  1  0
 28  7  1  0
 26 15  2  0
 23 18  1  0
M  END
>  <energy>  (104) 
90.86

>  <full_id>  (104) 
MOL00003712-000099-02_1

>  <mol_id>  (104) 
MOL00003712-000099-02

>  <act_mol>  (104) 
0

>  <act_conf>  (104) 
0

$$$$
MOL00003324-000103-03
     RDKit          3D

 33 35  0  0  0  0  0  0  0  0999 V2000
    7.9144   -1.9848    0.2702 C   0  0  0  0  0  0  0  0  0  0  0  0
    6.7764   -1.0997    0.3884 N   0  0  0  0  0  0  0  0  0  0  0  0
    6.0221   -0.7644   -0.7111 C   0  0  0  0  0  0  0  0  0  0  0  0
    6.1711   -1.2458   -1.8261 O   0  0  0  0  0  0  0  0  0  0  0  0
    4.9192    0.2014   -0.4957 C   0  0  0  0  0  0  0  0  0  0  0  0
    3.6609   -0.1645   -1.0112 C   0  0  0  0  0  0  0  0  0  0  0  0
    2.5444    0.6733   -0.8648 C   0  0  0  0  0  0  0  0  0  0  0  0
    1.1980    0.3217   -1.3602 C   0  0  0  0  0  0  0  0  0  0  0  0
    0.0920    0.9316   -0.9784 N   0  0  0  0  0  0  0  0  0  0  0  0
   -1.0213    0.3857   -1.6016 C   0  0  0  0  0  0  0  0  0  0  0  0
   -2.3524    0.9880   -1.3139 C   0  0  0  0  0  0  0  0  0  0  0  0
   -0.7468   -0.6773   -2.4453 C   0  0  0  0  0  0  0  0  0  0  0  0
   -1.6853   -1.5378   -3.2420 C   0  0  0  0  0  0  0  0  0  0  0  0
   -1.7333   -2.9863   -2.7350 C   0  0  0  0  0  0  0  0  0  0  0  0
   -2.1203   -3.0920   -1.3360 N   0  0  0  0  0  0  0  0  0  0  0  0
   -3.4335   -2.9986   -0.9450 C   0  0  0  0  0  0  0  0  0  0  0  0
   -4.3561   -2.8963   -1.7446 O   0  0  0  0  0  0  0  0  0  0  0  0
   -3.6467   -3.0359    0.5603 C   0  0  0  0  0  0  0  0  0  0  0  0
   -4.2190   -1.7447    1.0992 C   0  0  0  0  0  0  0  0  0  0  0  0
   -5.5846   -1.4604    0.9346 C   0  0  0  0  0  0  0  0  0  0  0  0
   -6.1283   -0.2665    1.4134 C   0  0  0  0  0  0  0  0  0  0  0  0
   -5.2979    0.6556    2.0584 C   0  0  0  0  0  0  0  0  0  0  0  0
   -5.8583    1.9167    2.5616 N   0  0  0  0  0  4  0  0  0  0  0  0
   -5.0721    2.7349    3.0686 O   0  0  0  0  0  0  0  0  0  0  0  0
   -7.0837    2.0907    2.4518 O   0  0  0  0  0  1  0  0  0  0  0  0
   -3.9323    0.3885    2.2258 C   0  0  0  0  0  0  0  0  0  0  0  0
   -3.3979   -0.8094    1.7453 C   0  0  0  0  0  0  0  0  0  0  0  0
    0.9473   -0.9330   -2.5118 S   0  0  0  0  0  0  0  0  0  0  0  0
    2.7266    1.8920   -0.1894 C   0  0  0  0  0  0  0  0  0  0  0  0
    3.9810    2.2718    0.3044 C   0  0  0  0  0  0  0  0  0  0  0  0
    5.0886    1.4336    0.1463 C   0  0  0  0  0  0  0  0  0  0  0  0
    6.3613    1.8759    0.6336 C   0  0  0  0  0  0  0  0  0  0  0  0
    7.3824    2.2165    1.0679 N   0  0  0  0  0  0  0  0  0  0  0  0
  1  2  1  0
  2  3  1  0
  3  4  2  0
  3  5  1  0
  5  6  2  0
  6  7  1  0
  7  8  1  0
  8  9  2  0
  9 10  1  0
 10 11  1  0
 10 12  2  0
 12 13  1  0
 13 14  1  0
 14 15  1  0
 15 16  1  0
 16 17  2  0
 16 18  1  0
 18 19  1  0
 19 20  2  0
 20 21  1  0
 21 22  2  0
 22 23  1  0
 23 24  2  0
 23 25  1  0
 22 26  1  0
 26 27  2  0
 12 28  1  0
  7 29  2  0
 29 30  1  0
 30 31  2  0
 31 32  1  0
 32 33  3  0
 31  5  1  0
 28  8  1  0
 27 19  1  0
M  CHG  2  23   1  25  -1
M  END
>  <energy>  (105) 
74.43

>  <full_id>  (105) 
MOL00003324-000103-03_1

>  <mol_id>  (105) 
MOL00003324-000103-03

>  <act_mol>  (105) 
0

>  <act_conf>  (105) 
0

$$$$
MOL00003737-001192-03
     RDKit          3D

 29 32  0  0  0  0  0  0  0  0999 V2000
   -0.7710   -1.8508    3.1580 C   0  0  0  0  0  0  0  0  0  0  0  0
   -1.4522   -1.2871    2.0191 N   0  0  0  0  0  0  0  0  0  0  0  0
   -1.8699   -2.1030    1.0226 N   0  0  0  0  0  0  0  0  0  0  0  0
   -2.4455   -1.2629    0.1433 C   0  0  0  0  0  0  0  0  0  0  0  0
   -3.0395   -1.7912   -1.1222 C   0  0  0  0  0  0  0  0  0  0  0  0
   -1.9600   -2.1092   -2.0322 N   0  0  0  0  0  0  0  0  0  0  0  0
   -1.5157   -1.1874   -2.9515 C   0  0  0  0  0  0  0  0  0  0  0  0
   -2.1074   -0.1448   -3.2074 O   0  0  0  0  0  0  0  0  0  0  0  0
   -0.2374   -1.6162   -3.6443 C   0  0  0  0  0  0  0  0  0  0  0  0
    0.4323   -0.5013   -4.4527 C   0  0  0  0  0  0  0  0  0  0  0  0
    0.8842    0.7164   -3.6381 C   0  0  0  0  0  0  0  0  0  0  0  0
    1.7360    0.3602   -2.4806 C   0  0  0  0  0  0  0  0  0  0  0  0
    1.5069    0.5270   -1.2000 N   0  0  0  0  0  0  0  0  0  0  0  0
    2.6095   -0.0588   -0.6182 C   0  0  0  0  0  0  0  0  0  0  0  0
    2.7686   -0.1307    0.8269 C   0  0  0  0  0  0  0  0  0  0  0  0
    3.7359   -0.9511    1.4117 C   0  0  0  0  0  0  0  0  0  0  0  0
    3.8112   -0.9969    2.7939 C   0  0  0  0  0  0  0  0  0  0  0  0
    3.0032   -0.2930    3.6148 N   0  0  0  0  0  0  0  0  0  0  0  0
    2.0876    0.5064    3.0288 C   0  0  0  0  0  0  0  0  0  0  0  0
    1.9334    0.6185    1.6589 C   0  0  0  0  0  0  0  0  0  0  0  0
    3.4848   -0.5669   -1.5026 N   0  0  0  0  0  0  0  0  0  0  0  0
    2.9114   -0.2785   -2.7405 O   0  0  0  0  0  0  0  0  0  0  0  0
   -2.3644    0.0900    0.5668 C   0  0  0  0  0  0  0  0  0  0  0  0
   -2.7370    1.3477    0.0684 C   0  0  0  0  0  0  0  0  0  0  0  0
   -2.4473    2.4477    0.8668 C   0  0  0  0  0  0  0  0  0  0  0  0
   -2.7743    3.6785    0.4533 F   0  0  0  0  0  0  0  0  0  0  0  0
   -1.8177    2.2688    2.0902 C   0  0  0  0  0  0  0  0  0  0  0  0
   -1.4263    1.0775    2.6105 N   0  0  0  0  0  0  0  0  0  0  0  0
   -1.7269    0.0365    1.8011 C   0  0  0  0  0  0  0  0  0  0  0  0
  1  2  1  0
  2  3  1  0
  3  4  2  0
  4  5  1  0
  5  6  1  0
  6  7  1  0
  7  8  2  0
  7  9  1  0
  9 10  1  0
 10 11  1  0
 11 12  1  0
 12 13  2  0
 13 14  1  0
 14 15  1  0
 15 16  2  0
 16 17  1  0
 17 18  2  0
 18 19  1  0
 19 20  2  0
 14 21  2  0
 21 22  1  0
  4 23  1  0
 23 24  2  0
 24 25  1  0
 25 26  1  0
 25 27  2  0
 27 28  1  0
 28 29  2  0
 29  2  1  0
 22 12  1  0
 29 23  1  0
 20 15  1  0
M  END
>  <energy>  (106) 
28.52

>  <full_id>  (106) 
MOL00003737-001192-03_1

>  <mol_id>  (106) 
MOL00003737-001192-03

>  <act_mol>  (106) 
0

>  <act_conf>  (106) 
0

$$$$
MOL00003211-001591-03
     RDKit          3D

 31 33  0  0  0  0  0  0  0  0999 V2000
   -0.6010   -4.3710   -3.2546 C   0  0  0  0  0  0  0  0  0  0  0  0
   -0.3712   -3.0847   -2.5059 C   0  0  0  0  0  0  0  0  0  0  0  0
   -1.4609   -2.4357   -1.9099 C   0  0  0  0  0  0  0  0  0  0  0  0
   -1.3100   -1.2471   -1.1847 C   0  0  0  0  0  0  0  0  0  0  0  0
   -2.4499   -0.7291   -0.5638 N   0  0  0  0  0  0  0  0  0  0  0  0
   -2.4628    0.5684    0.0933 C   0  0  1  0  0  0  0  0  0  0  0  0
   -3.8173    1.0444    0.0860 O   0  0  0  0  0  0  0  0  0  0  0  0
   -4.7205    0.3133    0.9272 C   0  0  2  0  0  0  0  0  0  0  0  0
   -6.0962    0.9499    0.7642 C   0  0  0  0  0  0  0  0  0  0  0  0
   -4.2557    0.3245    2.3884 C   0  0  2  0  0  0  0  0  0  0  0  0
   -4.3032    1.6459    2.9519 O   0  0  0  0  0  0  0  0  0  0  0  0
   -2.8177   -0.1947    2.4935 C   0  0  2  0  0  0  0  0  0  0  0  0
   -2.3276    0.0015    3.8342 O   0  0  0  0  0  0  0  0  0  0  0  0
   -1.8840    0.5380    1.5267 C   0  0  2  0  0  0  0  0  0  0  0  0
   -1.6937    1.8898    2.0061 O   0  0  0  0  0  0  0  0  0  0  0  0
   -0.0139   -0.7324   -1.0384 C   0  0  0  0  0  0  0  0  0  0  0  0
    1.1135   -1.3216   -1.6434 C   0  0  0  0  0  0  0  0  0  0  0  0
    2.4183   -0.8300   -1.4528 N   0  0  0  0  0  0  0  0  0  0  0  0
    2.6981    0.4846   -0.8770 C   0  0  1  0  0  0  0  0  0  0  0  0
    2.3333    0.4912    0.5012 O   0  0  0  0  0  0  0  0  0  0  0  0
    2.5285    1.7693    1.1210 C   0  0  1  0  0  0  0  0  0  0  0  0
    2.0480    1.6593    2.5643 C   0  0  0  0  0  0  0  0  0  0  0  0
    4.0035    2.1941    1.0617 C   0  0  2  0  0  0  0  0  0  0  0  0
    4.1749    3.5224    1.5605 O   0  0  0  0  0  0  0  0  0  0  0  0
    4.5083    2.1354   -0.3804 C   0  0  1  0  0  0  0  0  0  0  0  0
    5.9211    2.3985   -0.3937 O   0  0  0  0  0  0  0  0  0  0  0  0
    4.2184    0.7674   -0.9953 C   0  0  2  0  0  0  0  0  0  0  0  0
    4.6738    0.7774   -2.3592 O   0  0  0  0  0  0  0  0  0  0  0  0
    0.9153   -2.5286   -2.3608 C   0  0  0  0  0  0  0  0  0  0  0  0
    2.0446   -3.1959   -2.9530 C   0  0  0  0  0  0  0  0  0  0  0  0
    2.9661   -3.6979   -3.4509 N   0  0  0  0  0  0  0  0  0  0  0  0
  1  2  1  0
  2  3  2  0
  3  4  1  0
  4  5  1  0
  6  5  1  1
  6  7  1  0
  7  8  1  0
  8  9  1  1
  8 10  1  0
 10 11  1  6
 10 12  1  0
 12 13  1  1
 12 14  1  0
 14 15  1  1
  4 16  2  0
 16 17  1  0
 17 18  1  0
 19 18  1  1
 19 20  1  0
 20 21  1  0
 21 22  1  1
 21 23  1  0
 23 24  1  6
 23 25  1  0
 25 26  1  1
 25 27  1  0
 27 28  1  6
 17 29  2  0
 29 30  1  0
 30 31  3  0
 29  2  1  0
 14  6  1  0
 27 19  1  0
M  END
>  <energy>  (107) 
182.26

>  <full_id>  (107) 
MOL00003211-001591-03_1

>  <mol_id>  (107) 
MOL00003211-001591-03

>  <act_mol>  (107) 
0

>  <act_conf>  (107) 
0

$$$$
MOL00003805-000094-03
     RDKit          3D

 26 27  0  0  0  0  0  0  0  0999 V2000
   -8.9764   -0.6417    0.2030 C   0  0  0  0  0  0  0  0  0  0  0  0
   -7.8966    0.3915   -0.0536 C   0  0  0  0  0  0  0  0  0  0  0  0
   -6.6274   -0.2065    0.2411 O   0  0  0  0  0  0  0  0  0  0  0  0
   -5.5606    0.6170    0.0477 C   0  0  0  0  0  0  0  0  0  0  0  0
   -5.6560    1.7716   -0.3345 O   0  0  0  0  0  0  0  0  0  0  0  0
   -4.4359   -0.0851    0.3654 N   0  0  0  0  0  0  0  0  0  0  0  0
   -3.1078    0.3655    0.2558 C   0  0  0  0  0  0  0  0  0  0  0  0
   -2.9006    1.5923   -0.2478 N   0  0  0  0  0  0  0  0  0  0  0  0
   -1.6368    2.0032   -0.3725 C   0  0  0  0  0  0  0  0  0  0  0  0
   -0.5538    1.2934   -0.0387 N   0  0  0  0  0  0  0  0  0  0  0  0
   -0.7416    0.0661    0.4862 C   0  0  0  0  0  0  0  0  0  0  0  0
    0.3887   -0.7245    0.8102 N   0  0  0  0  0  0  0  0  0  0  0  0
    1.7560   -0.5132    0.5351 C   0  0  0  0  0  0  0  0  0  0  0  0
    2.7119   -1.1995    1.2936 C   0  0  0  0  0  0  0  0  0  0  0  0
    4.0814   -1.0641    1.0298 C   0  0  0  0  0  0  0  0  0  0  0  0
    4.5488   -0.2349    0.0039 C   0  0  0  0  0  0  0  0  0  0  0  0
    5.9267   -0.1977   -0.2464 N   0  0  0  0  0  0  0  0  0  0  0  0
    6.4747    0.9002   -1.0545 C   0  0  0  0  0  0  0  0  0  0  0  0
    7.9923    0.7125   -1.1750 C   0  0  0  0  0  0  0  0  0  0  0  0
    8.2832   -0.5660   -1.7401 O   0  0  0  0  0  0  0  0  0  0  0  0
    3.5912    0.3873   -0.7988 C   0  0  0  0  0  0  0  0  0  0  0  0
    2.2185    0.2537   -0.5350 C   0  0  0  0  0  0  0  0  0  0  0  0
   -2.0352   -0.4256    0.6481 C   0  0  0  0  0  0  0  0  0  0  0  0
   -2.2491   -1.7117    1.2590 N   0  0  0  0  0  4  0  0  0  0  0  0
   -1.5156   -2.0265    2.2089 O   0  0  0  0  0  0  0  0  0  0  0  0
   -3.1774   -2.4102    0.8263 O   0  0  0  0  0  1  0  0  0  0  0  0
  1  2  1  0
  2  3  1  0
  3  4  1  0
  4  5  2  0
  4  6  1  0
  6  7  1  0
  7  8  2  0
  8  9  1  0
  9 10  2  0
 10 11  1  0
 11 12  1  0
 12 13  1  0
 13 14  2  0
 14 15  1  0
 15 16  2  0
 16 17  1  0
 17 18  1  0
 18 19  1  0
 19 20  1  0
 16 21  1  0
 21 22  2  0
 11 23  2  0
 23 24  1  0
 24 25  2  0
 24 26  1  0
 23  7  1  0
 22 13  1  0
M  CHG  2  24   1  26  -1
M  END
>  <energy>  (108) 
-67.01

>  <full_id>  (108) 
MOL00003805-000094-03_1

>  <mol_id>  (108) 
MOL00003805-000094-03

>  <act_mol>  (108) 
0

>  <act_conf>  (108) 
0

$$$$
MOL00003694-000845-04
     RDKit          3D

 31 34  0  0  0  0  0  0  0  0999 V2000
   -3.0338   -4.6372   -2.9325 C   0  0  0  0  0  0  0  0  0  0  0  0
   -2.1545   -3.6862   -2.1728 C   0  0  0  0  0  0  0  0  0  0  0  0
   -0.7899   -3.9438   -2.0293 C   0  0  0  0  0  0  0  0  0  0  0  0
    0.0147   -3.0720   -1.2967 C   0  0  0  0  0  0  0  0  0  0  0  0
   -0.5399   -1.9284   -0.6967 C   0  0  0  0  0  0  0  0  0  0  0  0
    0.3479   -0.9916    0.0602 C   0  0  0  0  0  0  0  0  0  0  0  0
   -0.1096   -0.3912    1.0298 O   0  0  0  0  0  0  0  0  0  0  0  0
    1.6251   -0.8364   -0.4465 N   0  0  0  0  0  0  0  0  0  0  0  0
    2.5883   -0.0294    0.1295 C   0  0  0  0  0  0  0  0  0  0  0  0
    2.5846    0.7412    1.3082 C   0  0  0  0  0  0  0  0  0  0  0  0
    3.7387    1.3815    1.5111 N   0  0  0  0  0  0  0  0  0  0  0  0
    4.5138    1.0280    0.4455 N   0  0  0  0  0  0  0  0  0  0  0  0
    5.8584    1.5049    0.2630 C   0  0  0  0  0  0  0  0  0  0  0  0
    6.5280    1.0795   -0.8374 N   0  0  0  0  0  0  0  0  0  0  0  0
    7.7846    1.5395   -0.9896 C   0  0  0  0  0  0  0  0  0  0  0  0
    8.3955    2.3937   -0.1031 C   0  0  0  0  0  0  0  0  0  0  0  0
    7.6381    2.7676    0.9804 C   0  0  0  0  0  0  0  0  0  0  0  0
    6.3793    2.3428    1.1875 N   0  0  0  0  0  0  0  0  0  0  0  0
    3.8367    0.1690   -0.4045 C   0  0  0  0  0  0  0  0  0  0  0  0
   -1.9288   -1.6791   -0.7924 C   0  0  0  0  0  0  0  0  0  0  0  0
   -2.4791   -0.5579   -0.1210 N   0  0  0  0  0  0  0  0  0  0  0  0
   -3.7839   -0.1054   -0.1248 C   0  0  0  0  0  0  0  0  0  0  0  0
   -4.7110   -0.5537   -0.7862 O   0  0  0  0  0  0  0  0  0  0  0  0
   -4.0307    1.0569    0.7704 C   0  0  0  0  0  0  0  0  0  0  0  0
   -3.4852    1.0741    2.0619 C   0  0  0  0  0  0  0  0  0  0  0  0
   -3.7186    2.1636    2.8948 C   0  0  0  0  0  0  0  0  0  0  0  0
   -4.4963    3.1993    2.4113 C   0  0  0  0  0  0  0  0  0  0  0  0
   -5.0442    3.2124    1.1768 N   0  0  0  0  0  0  0  0  0  0  0  0
   -4.8129    2.1427    0.3641 C   0  0  0  0  0  0  0  0  0  0  0  0
   -5.4458    2.2198   -0.9948 C   0  0  0  0  0  0  0  0  0  0  0  0
   -2.7157   -2.5655   -1.5385 C   0  0  0  0  0  0  0  0  0  0  0  0
  1  2  1  0
  2  3  2  0
  3  4  1  0
  4  5  2  0
  5  6  1  0
  6  7  2  0
  6  8  1  0
  8  9  1  0
  9 10  1  0
 10 11  2  0
 11 12  1  0
 12 13  1  0
 13 14  2  0
 14 15  1  0
 15 16  2  0
 16 17  1  0
 17 18  2  0
 12 19  1  0
  5 20  1  0
 20 21  1  0
 21 22  1  0
 22 23  2  0
 22 24  1  0
 24 25  2  0
 25 26  1  0
 26 27  2  0
 27 28  1  0
 28 29  2  0
 29 30  1  0
 20 31  2  0
 31  2  1  0
 19  9  2  0
 29 24  1  0
 18 13  1  0
M  END
>  <energy>  (109) 
111.07

>  <full_id>  (109) 
MOL00003694-000845-04_1

>  <mol_id>  (109) 
MOL00003694-000845-04

>  <act_mol>  (109) 
0

>  <act_conf>  (109) 
0

$$$$
MOL00003833-001259-03
     RDKit          3D

 25 26  0  0  0  0  0  0  0  0999 V2000
   -3.0234   -0.4846    2.3889 C   0  0  0  0  0  0  0  0  0  0  0  0
   -2.9063   -0.7548    0.8838 C   0  0  2  0  0  0  0  0  0  0  0  0
   -1.5848   -0.2799    0.4339 N   0  0  0  0  0  0  0  0  0  0  0  0
   -1.2746   -0.7447   -0.9411 C   0  0  0  0  0  0  0  0  0  0  0  0
    0.1866   -0.4246   -1.2968 C   0  0  0  0  0  0  0  0  0  0  0  0
    0.5448   -0.3139   -2.4647 O   0  0  0  0  0  0  0  0  0  0  0  0
    0.9865   -0.3334   -0.1716 N   0  0  0  0  0  0  0  0  0  0  0  0
    2.3643   -0.0762   -0.0933 C   0  0  0  0  0  0  0  0  0  0  0  0
    2.9327   -0.0274    1.1872 C   0  0  0  0  0  0  0  0  0  0  0  0
    4.2975    0.2242    1.3540 C   0  0  0  0  0  0  0  0  0  0  0  0
    5.1014    0.4203    0.2303 C   0  0  0  0  0  0  0  0  0  0  0  0
    6.8229    0.7710    0.4287 S   0  0  0  0  0  6  0  0  0  0  0  0
    7.5095   -0.7512    0.2591 N   0  0  0  0  0  0  0  0  0  0  0  0
    7.0734    1.1668    1.7952 O   0  0  0  0  0  0  0  0  0  0  0  0
    7.2841    1.5465   -0.6986 O   0  0  0  0  0  0  0  0  0  0  0  0
    4.5471    0.3866   -1.0504 C   0  0  0  0  0  0  0  0  0  0  0  0
    3.1801    0.1333   -1.2082 C   0  0  0  0  0  0  0  0  0  0  0  0
   -4.0582   -0.1217    0.1276 C   0  0  0  0  0  0  0  0  0  0  0  0
   -4.2988    1.2647    0.1501 C   0  0  0  0  0  0  0  0  0  0  0  0
   -5.3678    1.8188   -0.5631 C   0  0  0  0  0  0  0  0  0  0  0  0
   -6.2124    0.9972   -1.3079 C   0  0  0  0  0  0  0  0  0  0  0  0
   -5.9830   -0.3730   -1.3346 C   0  0  0  0  0  0  0  0  0  0  0  0
   -6.7970   -1.1600   -2.0514 F   0  0  0  0  0  0  0  0  0  0  0  0
   -4.9207   -0.9276   -0.6272 C   0  0  0  0  0  0  0  0  0  0  0  0
   -4.7236   -2.2537   -0.6760 F   0  0  0  0  0  0  0  0  0  0  0  0
  2  1  1  1
  2  3  1  0
  3  4  1  0
  4  5  1  0
  5  6  2  0
  5  7  1  0
  7  8  1  0
  8  9  2  0
  9 10  1  0
 10 11  2  0
 11 12  1  0
 12 13  1  0
 12 14  2  0
 12 15  2  0
 11 16  1  0
 16 17  2  0
  2 18  1  0
 18 19  2  0
 19 20  1  0
 20 21  2  0
 21 22  1  0
 22 23  1  0
 22 24  2  0
 24 25  1  0
 17  8  1  0
 24 18  1  0
M  END
>  <energy>  (110) 
-20.66

>  <full_id>  (110) 
MOL00003833-001259-03_1

>  <mol_id>  (110) 
MOL00003833-001259-03

>  <act_mol>  (110) 
0

>  <act_conf>  (110) 
0

$$$$
MOL00003711-001139-03
     RDKit          3D

 28 29  0  0  0  0  0  0  0  0999 V2000
    7.8615   -1.8577    0.8454 C   0  0  0  0  0  0  0  0  0  0  0  0
    7.1230   -1.4246    2.1110 C   0  0  0  0  0  0  0  0  0  0  0  0
    7.2764   -2.4701    3.2134 C   0  0  0  0  0  0  0  0  0  0  0  0
    5.7115   -1.1958    1.8304 N   0  0  0  0  0  0  0  0  0  0  0  0
    5.2822   -0.0485    1.1869 C   0  0  0  0  0  0  0  0  0  0  0  0
    6.0209    0.8943    0.9195 O   0  0  0  0  0  0  0  0  0  0  0  0
    3.7973   -0.0559    0.8863 C   0  0  0  0  0  0  0  0  0  0  0  0
    3.4534    0.9130   -0.2482 C   0  0  0  0  0  0  0  0  0  0  0  0
    2.0184    1.0716   -0.5138 N   0  0  0  0  0  0  0  0  0  0  0  0
    1.2764   -0.1506   -0.8310 C   0  0  2  0  0  0  0  0  0  0  0  0
    1.8147   -0.8770   -2.0688 C   0  0  0  0  0  0  0  0  0  0  0  0
   -0.2006    0.1831   -1.0053 C   0  0  0  0  0  0  0  0  0  0  0  0
   -0.6494    0.9703   -2.0694 C   0  0  0  0  0  0  0  0  0  0  0  0
   -2.0103    1.2363   -2.2320 C   0  0  0  0  0  0  0  0  0  0  0  0
   -2.9521    0.7431   -1.3131 C   0  0  0  0  0  0  0  0  0  0  0  0
   -4.6736    1.0873   -1.6751 S   0  0  0  0  0  6  0  0  0  0  0  0
   -5.0303    2.5870   -0.8020 C   0  0  0  0  0  0  0  0  0  0  0  0
   -5.4986    0.0152   -1.1562 O   0  0  0  0  0  0  0  0  0  0  0  0
   -4.7518    1.4073   -3.0921 O   0  0  0  0  0  0  0  0  0  0  0  0
   -2.5279   -0.0267   -0.2128 C   0  0  0  0  0  0  0  0  0  0  0  0
   -3.4458   -0.5710    0.8637 C   0  0  0  0  0  0  0  0  0  0  0  0
   -4.0730    0.4930    1.6642 N   0  0  0  0  0  0  0  0  0  0  0  0
   -5.1798   -0.0704    2.4570 C   0  0  0  0  0  0  0  0  0  0  0  0
   -5.9167    1.0246    3.2289 C   0  0  0  0  0  0  0  0  0  0  0  0
   -4.9655    1.8208    4.1154 C   0  0  0  0  0  0  0  0  0  0  0  0
   -3.7679    2.3122    3.3131 C   0  0  0  0  0  0  0  0  0  0  0  0
   -3.1034    1.1706    2.5399 C   0  0  0  0  0  0  0  0  0  0  0  0
   -1.1461   -0.2953   -0.0829 C   0  0  0  0  0  0  0  0  0  0  0  0
  2  1  1  0
  2  3  1  0
  2  4  1  0
  4  5  1  0
  5  6  2  0
  5  7  1  0
  7  8  1  0
  8  9  1  0
  9 10  1  0
 10 11  1  6
 10 12  1  0
 12 13  2  0
 13 14  1  0
 14 15  2  0
 15 16  1  0
 16 17  1  0
 16 18  2  0
 16 19  2  0
 15 20  1  0
 20 21  1  0
 21 22  1  0
 22 23  1  0
 23 24  1  0
 24 25  1  0
 25 26  1  0
 26 27  1  0
 20 28  2  0
 28 12  1  0
 27 22  1  0
M  END
>  <energy>  (111) 
21.83

>  <full_id>  (111) 
MOL00003711-001139-03_1

>  <mol_id>  (111) 
MOL00003711-001139-03

>  <act_mol>  (111) 
0

>  <act_conf>  (111) 
0

$$$$
MOL00004007-000279-03
     RDKit          3D

 21 22  0  0  0  0  0  0  0  0999 V2000
    5.9650   -2.2508    0.5331 C   0  0  0  0  0  0  0  0  0  0  0  0
    6.1765   -0.8514    0.6990 O   0  0  0  0  0  0  0  0  0  0  0  0
    5.0590   -0.1354    0.6826 C   0  0  0  0  0  0  0  0  0  0  0  0
    3.8345   -0.5696    0.5256 N   0  0  0  0  0  0  0  0  0  0  0  0
    3.0887    0.5698    0.5952 C   0  0  0  0  0  0  0  0  0  0  0  0
    1.7294    0.6119    0.4861 N   0  0  0  0  0  0  0  0  0  0  0  0
    0.9202   -0.4815    0.3144 C   0  0  0  0  0  0  0  0  0  0  0  0
    1.2414   -1.6575    0.2084 O   0  0  0  0  0  0  0  0  0  0  0  0
   -0.5188   -0.1448    0.1974 C   0  0  0  0  0  0  0  0  0  0  0  0
   -1.1804   -0.3756   -1.0270 C   0  0  0  0  0  0  0  0  0  0  0  0
   -0.4678   -0.9611   -2.2167 C   0  0  0  0  0  0  0  0  0  0  0  0
   -2.5494   -0.0784   -1.1251 C   0  0  0  0  0  0  0  0  0  0  0  0
   -3.2571    0.4500   -0.0364 C   0  0  0  0  0  0  0  0  0  0  0  0
   -4.7357    0.7455   -0.1556 C   0  0  0  0  0  0  0  0  0  0  0  0
   -5.6064   -0.3927    0.3758 C   0  0  0  0  0  0  0  0  0  0  0  0
   -5.5456   -1.5269   -0.4827 O   0  0  0  0  0  0  0  0  0  0  0  0
   -2.5837    0.6718    1.1714 C   0  0  0  0  0  0  0  0  0  0  0  0
   -1.2225    0.3747    1.2926 C   0  0  0  0  0  0  0  0  0  0  0  0
   -0.4831    0.6589    2.8288 Cl  0  0  0  0  0  0  0  0  0  0  0  0
    3.7910    1.6949    0.7767 N   0  0  0  0  0  0  0  0  0  0  0  0
    5.0468    1.2145    0.8349 N   0  0  0  0  0  0  0  0  0  0  0  0
  1  2  1  0
  2  3  1  0
  3  4  2  0
  4  5  1  0
  5  6  1  0
  6  7  1  0
  7  8  2  0
  7  9  1  0
  9 10  2  0
 10 11  1  0
 10 12  1  0
 12 13  2  0
 13 14  1  0
 14 15  1  0
 15 16  1  0
 13 17  1  0
 17 18  2  0
 18 19  1  0
  5 20  2  0
 20 21  1  0
 21  3  1  0
 18  9  1  0
M  END
>  <energy>  (112) 
-19.52

>  <full_id>  (112) 
MOL00004007-000279-03_1

>  <mol_id>  (112) 
MOL00004007-000279-03

>  <act_mol>  (112) 
0

>  <act_conf>  (112) 
0

$$$$
MOL00003904-000435-03
     RDKit          3D

 22 23  0  0  0  0  0  0  0  0999 V2000
    6.7402   -1.8265    0.4875 C   0  0  0  0  0  0  0  0  0  0  0  0
    6.2630   -0.4849    0.5161 O   0  0  0  0  0  0  0  0  0  0  0  0
    4.9049   -0.3754    0.2944 C   0  0  0  0  0  0  0  0  0  0  0  0
    4.1848   -1.4985    0.0765 N   0  0  0  0  0  0  0  0  0  0  0  0
    2.8538   -1.3431   -0.1374 C   0  0  0  0  0  0  0  0  0  0  0  0
    2.1720   -0.1256   -0.1134 C   0  0  0  0  0  0  0  0  0  0  0  0
    0.8175    0.0426   -0.4041 N   0  0  0  0  0  0  0  0  0  0  0  0
   -0.0903   -1.0936   -0.3002 C   0  0  0  0  0  0  0  0  0  0  0  0
   -1.4983   -0.6236   -0.5794 C   0  0  0  0  0  0  0  0  0  0  0  0
   -1.8815   -0.2589   -1.8784 C   0  0  0  0  0  0  0  0  0  0  0  0
   -3.1803    0.1906   -2.1430 C   0  0  0  0  0  0  0  0  0  0  0  0
   -4.1193    0.2870   -1.1081 C   0  0  0  0  0  0  0  0  0  0  0  0
   -5.5108    0.7636   -1.3622 C   0  0  0  0  0  0  0  0  0  0  0  0
   -5.9220    1.1472   -2.7589 C   0  0  0  0  0  0  0  0  0  0  0  0
   -6.2999    0.8340   -0.4189 O   0  0  0  0  0  0  0  0  0  0  0  0
   -3.7298   -0.0717    0.1917 C   0  0  0  0  0  0  0  0  0  0  0  0
   -4.5693   -0.0090    1.2728 O   0  0  0  0  0  0  0  0  0  0  0  0
   -2.4352   -0.5196    0.4555 C   0  0  0  0  0  0  0  0  0  0  0  0
    2.9661    1.0093    0.0792 C   0  0  0  0  0  0  0  0  0  0  0  0
    4.3445    0.8938    0.2979 C   0  0  0  0  0  0  0  0  0  0  0  0
    5.1364    2.0638    0.5098 C   0  0  0  0  0  0  0  0  0  0  0  0
    5.7403    3.0410    0.6791 N   0  0  0  0  0  0  0  0  0  0  0  0
  1  2  1  0
  2  3  1  0
  3  4  2  0
  4  5  1  0
  5  6  2  0
  6  7  1  0
  7  8  1  0
  8  9  1  0
  9 10  2  0
 10 11  1  0
 11 12  2  0
 12 13  1  0
 13 14  1  0
 13 15  2  0
 12 16  1  0
 16 17  1  0
 16 18  2  0
  6 19  1  0
 19 20  2  0
 20 21  1  0
 21 22  3  0
 20  3  1  0
 18  9  1  0
M  END
>  <energy>  (113) 
58.93

>  <full_id>  (113) 
MOL00003904-000435-03_1

>  <mol_id>  (113) 
MOL00003904-000435-03

>  <act_mol>  (113) 
0

>  <act_conf>  (113) 
0

$$$$
MOL00004224-000466-04
     RDKit          3D

 26 28  0  0  0  0  0  0  0  0999 V2000
    6.2808    1.6716   -1.1619 C   0  0  0  0  0  0  0  0  0  0  0  0
    6.3229    0.1335   -0.2796 S   0  0  0  0  0  6  0  0  0  0  0  0
    6.3959   -0.9408   -1.2519 O   0  0  0  0  0  0  0  0  0  0  0  0
    7.3081    0.2458    0.7791 O   0  0  0  0  0  0  0  0  0  0  0  0
    4.7209    0.0611    0.4840 C   0  0  0  0  0  0  0  0  0  0  0  0
    4.5304    0.6332    1.7416 C   0  0  0  0  0  0  0  0  0  0  0  0
    3.2685    0.5696    2.3392 C   0  0  0  0  0  0  0  0  0  0  0  0
    2.1859   -0.0444    1.6882 C   0  0  0  0  0  0  0  0  0  0  0  0
    0.9488   -0.1427    2.3770 N   0  0  0  0  0  0  0  0  0  0  0  0
   -0.1670   -0.2511    1.5213 N   0  0  0  0  0  0  0  0  0  0  0  0
   -1.1351    0.7338    1.6582 C   0  0  0  0  0  0  0  0  0  0  0  0
   -0.9734    1.7337    2.3545 O   0  0  0  0  0  0  0  0  0  0  0  0
   -2.4221    0.4985    0.9477 C   0  0  0  0  0  0  0  0  0  0  0  0
   -3.5639    1.1632    1.4016 C   0  0  0  0  0  0  0  0  0  0  0  0
   -4.7899    0.9668    0.7632 C   0  0  0  0  0  0  0  0  0  0  0  0
   -4.8956    0.1082   -0.3447 C   0  0  0  0  0  0  0  0  0  0  0  0
   -6.1203   -0.1015   -0.9983 C   0  0  0  0  0  0  0  0  0  0  0  0
   -7.2277    0.5210   -0.5645 F   0  0  0  0  0  0  0  0  0  0  0  0
   -6.2286   -0.9463   -2.0996 C   0  0  0  0  0  0  0  0  0  0  0  0
   -5.1005   -1.6071   -2.5763 C   0  0  0  0  0  0  0  0  0  0  0  0
   -3.8733   -1.4125   -1.9405 C   0  0  0  0  0  0  0  0  0  0  0  0
   -2.7617   -2.0663   -2.4063 O   0  0  0  0  0  0  0  0  0  0  0  0
   -3.7442   -0.5602   -0.8222 C   0  0  0  0  0  0  0  0  0  0  0  0
   -2.5131   -0.3472   -0.1657 C   0  0  0  0  0  0  0  0  0  0  0  0
    2.4199   -0.6639    0.4507 C   0  0  0  0  0  0  0  0  0  0  0  0
    3.6774   -0.6054   -0.1584 C   0  0  0  0  0  0  0  0  0  0  0  0
  2  1  1  0
  2  3  2  0
  2  4  2  0
  2  5  1  0
  5  6  2  0
  6  7  1  0
  7  8  2  0
  8  9  1  0
  9 10  1  0
 10 11  1  0
 11 12  2  0
 11 13  1  0
 13 14  2  0
 14 15  1  0
 15 16  2  0
 16 17  1  0
 17 18  1  0
 17 19  2  0
 19 20  1  0
 20 21  2  0
 21 22  1  0
 21 23  1  0
 23 24  2  0
  8 25  1  0
 25 26  2  0
 26  5  1  0
 24 13  1  0
 23 16  1  0
M  END
>  <energy>  (114) 
107.67

>  <full_id>  (114) 
MOL00004224-000466-04_1

>  <mol_id>  (114) 
MOL00004224-000466-04

>  <act_mol>  (114) 
0

>  <act_conf>  (114) 
0

$$$$
MOL00004145-000030-00
     RDKit          3D

 25 26  0  0  0  0  0  0  0  0999 V2000
    7.8284   -2.1402   -0.7457 C   0  0  0  0  0  0  0  0  0  0  0  0
    7.4870   -0.8605   -0.0076 C   0  0  0  0  0  0  0  0  0  0  0  0
    6.0683   -0.6728   -0.0725 O   0  0  0  0  0  0  0  0  0  0  0  0
    5.6263    0.4459    0.5539 C   0  0  0  0  0  0  0  0  0  0  0  0
    6.3234    1.2593    1.1398 O   0  0  0  0  0  0  0  0  0  0  0  0
    4.1474    0.5643    0.4371 C   0  0  0  0  0  0  0  0  0  0  0  0
    3.3651   -0.3830   -0.2330 C   0  0  0  0  0  0  0  0  0  0  0  0
    1.9745   -0.2259   -0.3148 C   0  0  0  0  0  0  0  0  0  0  0  0
    1.3481    0.8771    0.2679 C   0  0  0  0  0  0  0  0  0  0  0  0
   -0.0422    1.1101    0.2380 N   0  0  0  0  0  0  0  0  0  0  0  0
   -1.0182    0.3812   -0.4118 C   0  0  0  0  0  0  0  0  0  0  0  0
   -0.7888   -0.5906   -1.1251 O   0  0  0  0  0  0  0  0  0  0  0  0
   -2.4371    0.8791   -0.2062 C   0  0  0  0  0  0  0  0  0  0  0  0
   -3.5119    0.1107   -0.5147 C   0  0  0  0  0  0  0  0  0  0  0  0
   -3.4692   -1.3225   -0.9993 C   0  0  0  0  0  0  0  0  0  0  0  0
   -3.4620   -1.4285   -2.5201 C   0  0  0  0  0  0  0  0  0  0  0  0
   -4.8646    0.7412   -0.3019 C   0  0  0  0  0  0  0  0  0  0  0  0
   -6.1447   -0.0373   -0.5938 C   0  0  0  0  0  0  0  0  0  0  0  0
   -6.6675   -0.7008    0.6692 C   0  0  0  0  0  0  0  0  0  0  0  0
   -5.0514    1.9440    0.1452 N   0  0  0  0  0  0  0  0  0  0  0  0
   -3.9590    2.6745    0.4410 N   0  0  0  0  0  0  0  0  0  0  0  0
   -2.6680    2.2496    0.3399 C   0  0  0  0  0  0  0  0  0  0  0  0
   -1.7405    2.9729    0.7017 O   0  0  0  0  0  0  0  0  0  0  0  0
    2.1340    1.8218    0.9405 C   0  0  0  0  0  0  0  0  0  0  0  0
    3.5221    1.6691    1.0247 C   0  0  0  0  0  0  0  0  0  0  0  0
  1  2  1  0
  2  3  1  0
  3  4  1  0
  4  5  2  0
  4  6  1  0
  6  7  2  0
  7  8  1  0
  8  9  2  0
  9 10  1  0
 10 11  1  0
 11 12  2  0
 11 13  1  0
 13 14  2  0
 14 15  1  0
 15 16  1  0
 14 17  1  0
 17 18  1  0
 18 19  1  0
 17 20  2  0
 20 21  1  0
 21 22  1  0
 22 23  2  0
  9 24  1  0
 24 25  2  0
 25  6  1  0
 22 13  1  0
M  END
>  <energy>  (115) 
33.79

>  <full_id>  (115) 
MOL00004145-000030-00_1

>  <mol_id>  (115) 
MOL00004145-000030-00

>  <act_mol>  (115) 
0

>  <act_conf>  (115) 
0

$$$$
MOL00004221-001822-03
     RDKit          3D

 28 29  0  0  0  0  0  0  0  0999 V2000
   -6.2783    0.5693   -1.1535 C   0  0  0  0  0  0  0  0  0  0  0  0
   -5.5276   -0.3636   -0.2385 C   0  0  0  0  0  0  0  0  0  0  0  0
   -6.1017   -1.6137    0.0625 C   0  0  0  0  0  0  0  0  0  0  0  0
   -5.4480   -2.5008    0.9254 C   0  0  0  0  0  0  0  0  0  0  0  0
   -6.0570   -3.8001    1.2367 N   0  0  0  0  0  4  0  0  0  0  0  0
   -7.1465   -4.0680    0.7101 O   0  0  0  0  0  0  0  0  0  0  0  0
   -5.4453   -4.5540    2.0073 O   0  0  0  0  0  1  0  0  0  0  0  0
   -4.2262   -2.1518    1.5024 C   0  0  0  0  0  0  0  0  0  0  0  0
   -3.6524   -0.9134    1.1988 C   0  0  0  0  0  0  0  0  0  0  0  0
   -4.2647   -0.0182    0.3006 C   0  0  0  0  0  0  0  0  0  0  0  0
   -3.7164    1.2710    0.0466 N   0  0  0  0  0  0  0  0  0  0  0  0
   -2.3155    1.3337    0.1721 N   0  0  0  0  0  0  0  0  0  0  0  0
   -1.5947    1.7652   -0.9256 C   0  0  0  0  0  0  0  0  0  0  0  0
   -2.0255    1.9010   -2.0643 O   0  0  0  0  0  0  0  0  0  0  0  0
   -0.1305    2.1067   -0.5912 C   0  0  0  0  0  0  0  0  0  0  0  0
    0.2645    2.0414    0.5643 O   0  0  0  0  0  0  0  0  0  0  0  0
    0.6199    2.4710   -1.6861 N   0  0  0  0  0  0  0  0  0  0  0  0
    1.9876    2.9358   -1.5775 C   0  0  0  0  0  0  0  0  0  0  0  0
    2.9635    1.7956   -1.3040 C   0  0  0  0  0  0  0  0  0  0  0  0
    4.3922    2.2989   -1.2582 C   0  0  0  0  0  0  0  0  0  0  0  0
    4.6848    3.4581   -1.5453 O   0  0  0  0  0  0  0  0  0  0  0  0
    5.4783    1.3490   -0.8662 C   0  0  0  0  0  0  0  0  0  0  0  0
    6.7869    1.8434   -0.7523 C   0  0  0  0  0  0  0  0  0  0  0  0
    7.8373    0.9972   -0.3909 C   0  0  0  0  0  0  0  0  0  0  0  0
    7.5876   -0.3508   -0.1419 C   0  0  0  0  0  0  0  0  0  0  0  0
    6.2895   -0.8448   -0.2564 C   0  0  0  0  0  0  0  0  0  0  0  0
    5.9839   -2.5112    0.0486 Cl  0  0  0  0  0  0  0  0  0  0  0  0
    5.2331   -0.0060   -0.6168 C   0  0  0  0  0  0  0  0  0  0  0  0
  1  2  1  0
  2  3  2  0
  3  4  1  0
  4  5  1  0
  5  6  2  0
  5  7  1  0
  4  8  2  0
  8  9  1  0
  9 10  2  0
 10 11  1  0
 11 12  1  0
 12 13  1  0
 13 14  2  0
 13 15  1  0
 15 16  2  0
 15 17  1  0
 17 18  1  0
 18 19  1  0
 19 20  1  0
 20 21  2  0
 20 22  1  0
 22 23  2  0
 23 24  1  0
 24 25  2  0
 25 26  1  0
 26 27  1  0
 26 28  2  0
 10  2  1  0
 28 22  1  0
M  CHG  2   5   1   7  -1
M  END
>  <energy>  (116) 
137.97

>  <full_id>  (116) 
MOL00004221-001822-03_1

>  <mol_id>  (116) 
MOL00004221-001822-03

>  <act_mol>  (116) 
0

>  <act_conf>  (116) 
0

$$$$
MOL00004325-000702-03
     RDKit          3D

 29 31  0  0  0  0  0  0  0  0999 V2000
    3.3043    1.4253    0.5670 O   0  0  0  0  0  0  0  0  0  0  0  0
    3.0267    0.2354    0.4667 C   0  0  0  0  0  0  0  0  0  0  0  0
    3.9247   -0.8113    0.4663 N   0  0  0  0  0  0  0  0  0  0  0  0
    5.2589   -0.5465    0.8170 N   0  0  0  0  0  0  0  0  0  0  0  0
    6.2022   -1.1812   -0.0379 C   0  0  0  0  0  0  0  0  0  0  0  0
    6.0315   -2.4692   -0.5664 C   0  0  0  0  0  0  0  0  0  0  0  0
    4.9007   -3.1555   -0.3315 F   0  0  0  0  0  0  0  0  0  0  0  0
    7.0203   -3.0836   -1.3383 C   0  0  0  0  0  0  0  0  0  0  0  0
    8.2254   -2.4261   -1.5797 C   0  0  0  0  0  0  0  0  0  0  0  0
    8.4375   -1.1606   -1.0375 C   0  0  0  0  0  0  0  0  0  0  0  0
    7.4392   -0.5613   -0.2691 C   0  0  0  0  0  0  0  0  0  0  0  0
    7.6716    0.6553    0.2494 F   0  0  0  0  0  0  0  0  0  0  0  0
    1.5596   -0.2100    0.3282 C   0  0  0  0  0  0  0  0  0  0  0  0
    1.3048   -1.4052    0.2986 O   0  0  0  0  0  0  0  0  0  0  0  0
    0.7013    0.8677    0.2624 N   0  0  0  0  0  0  0  0  0  0  0  0
   -0.6963    0.8507    0.1257 C   0  0  0  0  0  0  0  0  0  0  0  0
   -1.3537    2.0848    0.1066 C   0  0  0  0  0  0  0  0  0  0  0  0
   -2.7453    2.1485   -0.0247 C   0  0  0  0  0  0  0  0  0  0  0  0
   -3.5139    0.9812   -0.1334 C   0  0  0  0  0  0  0  0  0  0  0  0
   -4.9767    1.0597   -0.2631 C   0  0  0  0  0  0  0  0  0  0  0  0
   -5.3923    1.6473   -1.4171 N   0  0  0  0  0  0  0  0  0  0  0  0
   -6.7208    1.7446   -1.6299 C   0  0  0  0  0  0  0  0  0  0  0  0
   -7.6743    1.2870   -0.7427 C   0  0  0  0  0  0  0  0  0  0  0  0
   -7.2395    0.7011    0.4405 C   0  0  0  0  0  0  0  0  0  0  0  0
   -5.8686    0.5865    0.7129 C   0  0  0  0  0  0  0  0  0  0  0  0
   -5.3718   -0.0330    1.9929 C   0  0  0  0  0  0  0  0  0  0  0  0
   -6.4106   -0.1611    2.9602 O   0  0  0  0  0  0  0  0  0  0  0  0
   -2.8424   -0.2504   -0.1331 C   0  0  0  0  0  0  0  0  0  0  0  0
   -1.4492   -0.3164    0.0008 C   0  0  0  0  0  0  0  0  0  0  0  0
  1  2  2  0
  2  3  1  0
  3  4  1  0
  4  5  1  0
  5  6  2  0
  6  7  1  0
  6  8  1  0
  8  9  2  0
  9 10  1  0
 10 11  2  0
 11 12  1  0
  2 13  1  0
 13 14  2  0
 13 15  1  0
 15 16  1  0
 16 17  2  0
 17 18  1  0
 18 19  2  0
 19 20  1  0
 20 21  2  0
 21 22  1  0
 22 23  2  0
 23 24  1  0
 24 25  2  0
 25 26  1  0
 26 27  1  0
 19 28  1  0
 28 29  2  0
 11  5  1  0
 29 16  1  0
 25 20  1  0
M  END
>  <energy>  (117) 
148.14

>  <full_id>  (117) 
MOL00004325-000702-03_1

>  <mol_id>  (117) 
MOL00004325-000702-03

>  <act_mol>  (117) 
0

>  <act_conf>  (117) 
0

$$$$
MOL00004212-001093-04
     RDKit          3D

 26 29  0  0  0  0  0  0  0  0999 V2000
   -2.1969   -2.2023    3.1545 O   0  0  0  0  0  0  0  0  0  0  0  0
   -1.6257   -2.0228    2.0820 C   0  0  0  0  0  0  0  0  0  0  0  0
   -2.3519   -2.0806    0.7448 C   0  0  0  0  0  0  0  0  0  0  0  0
   -1.9404   -0.9496   -0.1409 C   0  0  0  0  0  0  0  0  0  0  0  0
   -0.7722   -1.0092   -0.8079 N   0  0  0  0  0  0  0  0  0  0  0  0
   -0.6725    0.1883   -1.4199 N   0  0  0  0  0  0  0  0  0  0  0  0
   -1.7532    0.9827   -1.1946 C   0  0  0  0  0  0  0  0  0  0  0  0
   -2.5968    0.2820   -0.3627 C   0  0  0  0  0  0  0  0  0  0  0  0
   -3.8877    0.8320    0.1281 C   0  0  0  0  0  0  0  0  0  0  0  0
   -3.9485    2.3587   -0.0892 C   0  0  0  0  0  0  0  0  0  0  0  0
   -3.4215    2.7778   -1.4778 C   0  0  0  0  0  0  0  0  0  0  0  0
   -1.9525    2.3623   -1.6980 C   0  0  0  0  0  0  0  0  0  0  0  0
   -0.2759   -1.8055    1.9890 N   0  0  0  0  0  0  0  0  0  0  0  0
    0.5796   -1.6164    3.1380 C   0  0  0  0  0  0  0  0  0  0  0  0
    1.8723   -1.0646    2.6678 C   0  0  0  0  0  0  0  0  0  0  0  0
    2.6705   -1.5122    1.7215 N   0  0  0  0  0  0  0  0  0  0  0  0
    3.5934   -0.4999    1.6206 C   0  0  0  0  0  0  0  0  0  0  0  0
    4.6843   -0.5208    0.6126 C   0  0  0  0  0  0  0  0  0  0  0  0
    4.0678   -0.0597   -0.6903 C   0  0  0  0  0  0  0  0  0  0  0  0
    3.3197   -0.9440   -1.4829 C   0  0  0  0  0  0  0  0  0  0  0  0
    2.7618   -0.5204   -2.6907 C   0  0  0  0  0  0  0  0  0  0  0  0
    2.9402    0.7933   -3.1193 C   0  0  0  0  0  0  0  0  0  0  0  0
    3.6745    1.6839   -2.3390 C   0  0  0  0  0  0  0  0  0  0  0  0
    4.2336    1.2623   -1.1308 C   0  0  0  0  0  0  0  0  0  0  0  0
    3.4375    0.4927    2.5093 N   0  0  0  0  0  0  0  0  0  0  0  0
    2.2775    0.1247    3.1993 O   0  0  0  0  0  0  0  0  0  0  0  0
  1  2  2  0
  2  3  1  0
  3  4  1  0
  4  5  2  0
  5  6  1  0
  6  7  1  0
  7  8  2  0
  8  9  1  0
  9 10  1  0
 10 11  1  0
 11 12  1  0
  2 13  1  0
 13 14  1  0
 14 15  1  0
 15 16  2  0
 16 17  1  0
 17 18  1  0
 18 19  1  0
 19 20  2  0
 20 21  1  0
 21 22  2  0
 22 23  1  0
 23 24  2  0
 17 25  2  0
 25 26  1  0
  8  4  1  0
 26 15  1  0
 12  7  1  0
 24 19  1  0
M  END
>  <energy>  (118) 
56.15

>  <full_id>  (118) 
MOL00004212-001093-04_1

>  <mol_id>  (118) 
MOL00004212-001093-04

>  <act_mol>  (118) 
0

>  <act_conf>  (118) 
0

$$$$
MOL00003944-000054-02
     RDKit          3D

 22 24  0  0  0  0  0  0  0  0999 V2000
    0.7339   -1.9887   -0.5745 C   0  0  0  0  0  0  0  0  0  0  0  0
    0.4817   -0.6693   -0.0066 N   0  0  0  0  0  0  0  0  0  0  0  0
    1.5041    0.2738    0.2143 C   0  0  0  0  0  0  0  0  0  0  0  0
    1.2346    1.4684    0.3704 O   0  0  0  0  0  0  0  0  0  0  0  0
    2.9156   -0.1722    0.2804 C   0  0  0  0  0  0  0  0  0  0  0  0
    3.3203   -1.4463    0.5339 N   0  0  0  0  0  0  0  0  0  0  0  0
    4.6747   -1.3956    0.5603 N   0  0  0  0  0  0  0  0  0  0  0  0
    5.1289   -0.1497    0.3398 C   0  0  0  0  0  0  0  0  0  0  0  0
    4.0471    0.6554    0.1674 C   0  0  0  0  0  0  0  0  0  0  0  0
    4.4385    2.0573   -0.0517 C   0  0  0  0  0  0  0  0  0  0  0  0
    5.9891    1.9207   -0.2847 C   0  0  0  0  0  0  0  0  0  0  0  0
    6.4321    0.5191    0.2705 C   0  0  0  0  0  0  0  0  0  0  0  0
   -0.9101   -0.2391    0.1954 C   0  0  1  0  0  0  0  0  0  0  0  0
   -1.5340    0.2668   -1.1147 C   0  0  0  0  0  0  0  0  0  0  0  0
   -2.9630    0.7606   -0.8994 C   0  0  0  0  0  0  0  0  0  0  0  0
   -3.8430   -0.3074   -0.2418 C   0  0  2  0  0  0  0  0  0  0  0  0
   -5.1793    0.2229   -0.0126 N   0  0  0  0  0  0  0  0  0  0  0  0
   -6.2455   -0.6122    0.1520 C   0  0  0  0  0  0  0  0  0  0  0  0
   -7.3789    0.0681    0.4598 N   0  0  0  0  0  0  0  0  0  0  0  0
   -6.2333   -1.8276    0.0403 O   0  0  0  0  0  0  0  0  0  0  0  0
   -3.2171   -0.8087    1.0677 C   0  0  0  0  0  0  0  0  0  0  0  0
   -1.7916   -1.3143    0.8516 C   0  0  0  0  0  0  0  0  0  0  0  0
  1  2  1  0
  2  3  1  0
  3  4  2  0
  3  5  1  0
  5  6  2  0
  6  7  1  0
  7  8  1  0
  8  9  2  0
  9 10  1  0
 10 11  1  0
 11 12  1  0
 13  2  1  6
 13 14  1  0
 14 15  1  0
 15 16  1  0
 16 17  1  1
 17 18  1  0
 18 19  1  0
 18 20  2  0
 16 21  1  0
 21 22  1  0
  9  5  1  0
 22 13  1  0
 12  8  1  0
M  END
>  <energy>  (119) 
-37.83

>  <full_id>  (119) 
MOL00003944-000054-02_1

>  <mol_id>  (119) 
MOL00003944-000054-02

>  <act_mol>  (119) 
0

>  <act_conf>  (119) 
0

$$$$
MOL00003979-000018-02
     RDKit          3D

 28 31  0  0  0  0  0  0  0  0999 V2000
    8.0338   -0.4754   -0.9882 C   0  0  0  0  0  0  0  0  0  0  0  0
    7.4702    0.1919    0.1724 N   0  0  0  0  0  0  0  0  0  0  0  0
    6.0861    0.3811    0.2580 C   0  0  0  0  0  0  0  0  0  0  0  0
    5.5985    1.2847    1.2097 C   0  0  0  0  0  0  0  0  0  0  0  0
    4.2278    1.4932    1.4135 C   0  0  0  0  0  0  0  0  0  0  0  0
    3.3282    0.7405    0.6486 C   0  0  0  0  0  0  0  0  0  0  0  0
    1.6118    0.7583    0.6581 S   0  0  0  0  0  0  0  0  0  0  0  0
    1.5705   -0.4654   -0.5510 C   0  0  0  0  0  0  0  0  0  0  0  0
    0.3084   -1.0156   -1.0989 C   0  0  0  0  0  0  0  0  0  0  0  0
   -0.9631   -0.5779   -0.6718 C   0  0  0  0  0  0  0  0  0  0  0  0
   -2.1439   -1.1120   -1.2061 C   0  0  0  0  0  0  0  0  0  0  0  0
   -3.4398   -0.7141   -0.8126 N   0  0  0  0  0  0  0  0  0  0  0  0
   -3.7804    0.2883    0.0747 C   0  0  0  0  0  0  0  0  0  0  0  0
   -3.0189    1.0633    0.6405 O   0  0  0  0  0  0  0  0  0  0  0  0
   -5.2598    0.4074    0.2745 C   0  0  0  0  0  0  0  0  0  0  0  0
   -6.1302   -0.7412    0.4572 C   0  0  0  0  0  0  0  0  0  0  0  0
   -7.4507   -0.5788    0.6342 C   0  0  0  0  0  0  0  0  0  0  0  0
   -8.0332    0.7895    0.6554 C   0  0  0  0  0  0  0  0  0  0  0  0
   -9.2362    0.9652    0.7989 O   0  0  0  0  0  0  0  0  0  0  0  0
   -7.1353    1.8204    0.5103 N   0  0  0  0  0  0  0  0  0  0  0  0
   -5.7832    1.6432    0.3313 C   0  0  0  0  0  0  0  0  0  0  0  0
   -2.0591   -2.1088   -2.1828 C   0  0  0  0  0  0  0  0  0  0  0  0
   -0.8173   -2.5602   -2.6230 C   0  0  0  0  0  0  0  0  0  0  0  0
    0.3480   -2.0185   -2.0866 C   0  0  0  0  0  0  0  0  0  0  0  0
    1.5180   -2.5317   -2.5873 O   0  0  0  0  0  0  0  0  0  0  0  0
    2.7618   -0.8772   -0.9535 N   0  0  0  0  0  0  0  0  0  0  0  0
    3.7667   -0.1972   -0.2811 C   0  0  0  0  0  0  0  0  0  0  0  0
    5.1556   -0.3839   -0.4598 C   0  0  0  0  0  0  0  0  0  0  0  0
  1  2  1  0
  2  3  1  0
  3  4  2  0
  4  5  1  0
  5  6  2  0
  6  7  1  0
  7  8  1  0
  8  9  1  0
  9 10  2  0
 10 11  1  0
 11 12  1  0
 12 13  1  0
 13 14  2  0
 13 15  1  0
 15 16  1  0
 16 17  2  0
 17 18  1  0
 18 19  2  0
 18 20  1  0
 20 21  1  0
 11 22  2  0
 22 23  1  0
 23 24  2  0
 24 25  1  0
  8 26  2  0
 26 27  1  0
 27 28  2  0
 28  3  1  0
 27  6  1  0
 24  9  1  0
 21 15  2  0
M  END
>  <energy>  (120) 
25.45

>  <full_id>  (120) 
MOL00003979-000018-02_1

>  <mol_id>  (120) 
MOL00003979-000018-02

>  <act_mol>  (120) 
0

>  <act_conf>  (120) 
0

$$$$
MOL00003991-001403-04
     RDKit          3D

 22 23  0  0  0  0  0  0  0  0999 V2000
    4.9127    1.0192    1.2401 C   0  0  0  0  0  0  0  0  0  0  0  0
    4.0918    0.8401   -0.0047 C   0  0  0  0  0  0  0  0  0  0  0  0
    2.7653    1.3007   -0.0202 C   0  0  0  0  0  0  0  0  0  0  0  0
    1.9607    1.1613   -1.1602 C   0  0  0  0  0  0  0  0  0  0  0  0
    0.5309    1.6368   -1.1585 C   0  0  0  0  0  0  0  0  0  0  0  0
   -0.3638    0.5546   -0.8421 N   0  0  0  0  0  0  0  0  0  0  0  0
   -1.0940   -0.1247   -1.7890 C   0  0  0  0  0  0  0  0  0  0  0  0
   -1.1290    0.1844   -2.9770 O   0  0  0  0  0  0  0  0  0  0  0  0
   -1.8192   -1.3633   -1.2443 C   0  0  0  0  0  0  0  0  0  0  0  0
   -2.1098   -1.2354    0.2068 N   0  0  0  0  0  0  0  0  0  0  0  0
   -3.2572   -0.3261    0.4358 C   0  0  0  0  0  0  0  0  0  0  0  0
   -3.6305   -0.2225    1.9401 C   0  0  1  0  0  0  0  0  0  0  0  0
   -4.8647    0.6626    2.1192 C   0  0  0  0  0  0  0  0  0  0  0  0
   -3.8998   -1.5401    2.5556 N   0  0  0  0  0  0  0  0  0  0  0  0
   -2.7968   -2.4885    2.2869 C   0  0  2  0  0  0  0  0  0  0  0  0
   -1.5773   -2.1713    3.1589 C   0  0  0  0  0  0  0  0  0  0  0  0
   -2.4280   -2.5591    0.7801 C   0  0  0  0  0  0  0  0  0  0  0  0
    2.4914    0.5329   -2.2943 C   0  0  0  0  0  0  0  0  0  0  0  0
    3.8110    0.0632   -2.3058 C   0  0  0  0  0  0  0  0  0  0  0  0
    4.3615   -0.6045   -3.5339 C   0  0  0  0  0  0  0  0  0  0  0  0
    4.5996    0.2233   -1.1580 C   0  0  0  0  0  0  0  0  0  0  0  0
    5.8826   -0.2521   -1.2168 O   0  0  0  0  0  0  0  0  0  0  0  0
  1  2  1  0
  2  3  2  0
  3  4  1  0
  4  5  1  0
  5  6  1  0
  6  7  1  0
  7  8  2  0
  7  9  1  0
  9 10  1  0
 10 11  1  0
 11 12  1  0
 12 13  1  6
 12 14  1  0
 14 15  1  0
 15 16  1  1
 15 17  1  0
  4 18  2  0
 18 19  1  0
 19 20  1  0
 19 21  2  0
 21 22  1  0
 21  2  1  0
 17 10  1  0
M  END
>  <energy>  (121) 
90.44

>  <full_id>  (121) 
MOL00003991-001403-04_1

>  <mol_id>  (121) 
MOL00003991-001403-04

>  <act_mol>  (121) 
0

>  <act_conf>  (121) 
0

$$$$
MOL00004191-003664-02
     RDKit          3D

 29 31  0  0  0  0  0  0  0  0999 V2000
    8.1961   -0.0846   -0.4263 C   0  0  0  0  0  0  0  0  0  0  0  0
    6.8246   -0.4666   -0.0366 C   0  0  0  0  0  0  0  0  0  0  0  0
    5.6991   -0.1841   -0.6523 N   0  0  0  0  0  0  0  0  0  0  0  0
    4.7443   -0.7663    0.1249 C   0  0  0  0  0  0  0  0  0  0  0  0
    3.4038   -0.7360   -0.1263 N   0  0  0  0  0  0  0  0  0  0  0  0
    2.8077   -0.0601   -1.1609 C   0  0  0  0  0  0  0  0  0  0  0  0
    3.3495    0.6581   -1.9923 O   0  0  0  0  0  0  0  0  0  0  0  0
    1.3243   -0.2078   -1.2271 C   0  0  0  0  0  0  0  0  0  0  0  0
    0.6768   -1.3925   -0.8541 C   0  0  0  0  0  0  0  0  0  0  0  0
   -0.7157   -1.4833   -0.9364 C   0  0  0  0  0  0  0  0  0  0  0  0
   -1.4758   -0.3995   -1.4023 C   0  0  0  0  0  0  0  0  0  0  0  0
   -2.9875   -0.5018   -1.4653 C   0  0  0  0  0  0  0  0  0  0  0  0
   -3.6251   -0.4773   -0.1121 N   0  0  0  0  0  0  0  0  0  0  0  0
   -3.4286    0.7479    0.6249 C   0  0  0  0  0  0  0  0  0  0  0  0
   -4.0169    1.9589    0.2515 C   0  0  0  0  0  0  0  0  0  0  0  0
   -3.7491    3.1205    0.9778 C   0  0  0  0  0  0  0  0  0  0  0  0
   -2.8808    3.0776    2.0696 C   0  0  0  0  0  0  0  0  0  0  0  0
   -2.2748    1.8714    2.4351 C   0  0  0  0  0  0  0  0  0  0  0  0
   -1.3739    1.8238    3.5484 C   0  0  0  0  0  0  0  0  0  0  0  0
   -0.6498    1.7754    4.4537 N   0  0  0  0  0  0  0  0  0  0  0  0
   -2.5484    0.7081    1.7094 C   0  0  0  0  0  0  0  0  0  0  0  0
   -5.2194   -1.0951   -0.1359 S   0  0  0  0  0  6  0  0  0  0  0  0
   -5.5638   -1.3250    1.5982 C   0  0  0  0  0  0  0  0  0  0  0  0
   -6.1102   -0.0833   -0.6638 O   0  0  0  0  0  0  0  0  0  0  0  0
   -5.1643   -2.4101   -0.7424 O   0  0  0  0  0  0  0  0  0  0  0  0
   -0.8211    0.7787   -1.7858 C   0  0  0  0  0  0  0  0  0  0  0  0
    0.5700    0.8710   -1.7047 C   0  0  0  0  0  0  0  0  0  0  0  0
    5.2182   -1.4140    1.1938 N   0  0  0  0  0  0  0  0  0  0  0  0
    6.5389   -1.2042    1.0740 N   0  0  0  0  0  0  0  0  0  0  0  0
  1  2  1  0
  2  3  2  0
  3  4  1  0
  4  5  1  0
  5  6  1  0
  6  7  2  0
  6  8  1  0
  8  9  2  0
  9 10  1  0
 10 11  2  0
 11 12  1  0
 12 13  1  0
 13 14  1  0
 14 15  2  0
 15 16  1  0
 16 17  2  0
 17 18  1  0
 18 19  1  0
 19 20  3  0
 18 21  2  0
 13 22  1  0
 22 23  1  0
 22 24  2  0
 22 25  2  0
 11 26  1  0
 26 27  2  0
  4 28  2  0
 28 29  1  0
 29  2  1  0
 27  8  1  0
 21 14  1  0
M  END
>  <energy>  (122) 
-40.34

>  <full_id>  (122) 
MOL00004191-003664-02_1

>  <mol_id>  (122) 
MOL00004191-003664-02

>  <act_mol>  (122) 
0

>  <act_conf>  (122) 
0

$$$$
MOL00004282-000053-03
     RDKit          3D

 31 34  0  0  0  0  0  0  0  0999 V2000
    0.0267   -0.9266   -2.5792 C   0  0  0  0  0  0  0  0  0  0  0  0
    0.9770   -0.6527   -1.4452 C   0  0  0  0  0  0  0  0  0  0  0  0
    2.3432   -0.9214   -1.6670 C   0  0  0  0  0  0  0  0  0  0  0  0
    3.2901   -0.6794   -0.6765 C   0  0  0  0  0  0  0  0  0  0  0  0
    4.5917   -1.0251   -0.9441 O   0  0  0  0  0  0  0  0  0  0  0  0
    5.5691   -0.0576   -0.7387 C   0  0  0  0  0  0  0  0  0  0  0  0
    5.2258    1.2535   -0.8191 N   0  0  0  0  0  0  0  0  0  0  0  0
    6.2101    2.1623   -0.6546 C   0  0  0  0  0  0  0  0  0  0  0  0
    7.5330    1.8252   -0.4225 C   0  0  0  0  0  0  0  0  0  0  0  0
    7.8682    0.4741   -0.3586 C   0  0  0  0  0  0  0  0  0  0  0  0
    6.8724   -0.4923   -0.5253 C   0  0  0  0  0  0  0  0  0  0  0  0
    7.1999   -1.8824   -0.4716 C   0  0  0  0  0  0  0  0  0  0  0  0
    7.5020   -3.0024   -0.4214 N   0  0  0  0  0  0  0  0  0  0  0  0
    2.8828   -0.2041    0.5629 C   0  0  0  0  0  0  0  0  0  0  0  0
    1.5296    0.0676    0.7951 C   0  0  0  0  0  0  0  0  0  0  0  0
    0.5563   -0.1423   -0.1937 C   0  0  0  0  0  0  0  0  0  0  0  0
   -0.8286    0.1248    0.0251 N   0  0  0  0  0  0  0  0  0  0  0  0
   -1.4107    0.6364    1.1724 C   0  0  0  0  0  0  0  0  0  0  0  0
   -0.7915    0.9732    2.1804 O   0  0  0  0  0  0  0  0  0  0  0  0
   -2.8984    0.7948    1.2458 C   0  0  0  0  0  0  0  0  0  0  0  0
   -3.4230    1.1836    2.4940 C   0  0  0  0  0  0  0  0  0  0  0  0
   -4.7930    1.3671    2.6672 C   0  0  0  0  0  0  0  0  0  0  0  0
   -5.2964    1.7964    3.8904 N   0  0  0  0  0  0  0  0  0  0  0  0
   -5.6828    1.2003    1.6788 N   0  0  0  0  0  0  0  0  0  0  0  0
   -5.1874    0.8226    0.4884 C   0  0  0  0  0  0  0  0  0  0  0  0
   -3.8286    0.6277    0.2422 C   0  0  0  0  0  0  0  0  0  0  0  0
   -3.7570    0.2965   -1.1738 C   0  0  0  0  0  0  0  0  0  0  0  0
   -2.7617   -0.0783   -1.7604 O   0  0  0  0  0  0  0  0  0  0  0  0
   -5.0225    0.4429   -1.7051 N   0  0  0  0  0  0  0  0  0  0  0  0
   -5.9785    0.5662   -0.6731 N   0  0  0  0  0  0  0  0  0  0  0  0
   -7.0070    1.5817   -0.8678 C   0  0  0  0  0  0  0  0  0  0  0  0
  1  2  1  0
  2  3  2  0
  3  4  1  0
  4  5  1  0
  5  6  1  0
  6  7  2  0
  7  8  1  0
  8  9  2  0
  9 10  1  0
 10 11  2  0
 11 12  1  0
 12 13  3  0
  4 14  2  0
 14 15  1  0
 15 16  2  0
 16 17  1  0
 17 18  1  0
 18 19  2  0
 18 20  1  0
 20 21  2  0
 21 22  1  0
 22 23  1  0
 22 24  2  0
 24 25  1  0
 25 26  2  0
 26 27  1  0
 27 28  2  0
 27 29  1  0
 29 30  1  0
 30 31  1  0
 16  2  1  0
 26 20  1  0
 11  6  1  0
 30 25  1  0
M  END
>  <energy>  (123) 
-4.34

>  <full_id>  (123) 
MOL00004282-000053-03_1

>  <mol_id>  (123) 
MOL00004282-000053-03

>  <act_mol>  (123) 
0

>  <act_conf>  (123) 
0

$$$$
MOL00004703-000343-04
     RDKit          3D

 20 21  0  0  0  0  0  0  0  0999 V2000
   -1.3026   -1.8285   -0.7104 O   0  0  0  0  0  0  0  0  0  0  0  0
   -2.4498   -1.4221   -0.8297 C   0  0  0  0  0  0  0  0  0  0  0  0
   -3.4233   -2.2706   -1.2254 O   0  0  0  0  0  0  0  0  0  0  0  0
   -2.8851   -0.0548   -0.5756 C   0  0  0  0  0  0  0  0  0  0  0  0
   -4.2160    0.3051   -0.7444 C   0  0  0  0  0  0  0  0  0  0  0  0
   -4.5342    1.9383   -0.4026 S   0  0  0  0  0  0  0  0  0  0  0  0
   -2.9028    2.2129   -0.0187 C   0  0  0  0  0  0  0  0  0  0  0  0
   -2.0867    1.0910   -0.1375 C   0  0  0  0  0  0  0  0  0  0  0  0
   -0.6445    1.2496    0.1818 C   0  0  0  0  0  0  0  0  0  0  0  0
   -0.2258    2.3495    0.5321 O   0  0  0  0  0  0  0  0  0  0  0  0
    0.1443    0.1335    0.0630 N   0  0  0  0  0  0  0  0  0  0  0  0
    1.4853    0.1468    0.3293 C   0  0  0  0  0  0  0  0  0  0  0  0
    2.2514    1.1322    0.7206 N   0  0  0  0  0  0  0  0  0  0  0  0
    3.5567    0.6864    0.8672 C   0  0  0  0  0  0  0  0  0  0  0  0
    4.7595    1.7802    1.4042 Cl  0  0  0  0  0  0  0  0  0  0  0  0
    3.7160   -0.6453    0.5769 C   0  0  0  0  0  0  0  0  0  0  0  0
    4.9054   -1.4139    0.6093 N   0  0  0  0  0  4  0  0  0  0  0  0
    4.8374   -2.5384    1.1211 O   0  0  0  0  0  0  0  0  0  0  0  0
    5.9152   -0.9034    0.1124 O   0  0  0  0  0  1  0  0  0  0  0  0
    2.2490   -1.3666    0.1107 S   0  0  0  0  0  0  0  0  0  0  0  0
  1  2  2  0
  2  3  1  0
  2  4  1  0
  4  5  2  0
  5  6  1  0
  6  7  1  0
  7  8  2  0
  8  9  1  0
  9 10  2  0
  9 11  1  0
 11 12  1  0
 12 13  2  0
 13 14  1  0
 14 15  1  0
 14 16  2  0
 16 17  1  0
 17 18  2  0
 17 19  1  0
 16 20  1  0
  8  4  1  0
 20 12  1  0
M  CHG  2  17   1  19  -1
M  END
>  <energy>  (124) 
-76.82

>  <full_id>  (124) 
MOL00004703-000343-04_1

>  <mol_id>  (124) 
MOL00004703-000343-04

>  <act_mol>  (124) 
0

>  <act_conf>  (124) 
0

$$$$
MOL00004399-000562-02
     RDKit          3D

 21 22  0  0  0  0  0  0  0  0999 V2000
   -5.5186    0.1530   -0.3945 C   0  0  0  0  0  0  0  0  0  0  0  0
   -4.2138   -0.6234   -0.4119 C   0  0  0  0  0  0  0  0  0  0  0  0
   -3.3437   -0.2353    0.7587 C   0  0  0  0  0  0  0  0  0  0  0  0
   -2.3281    0.5481    0.5890 N   0  0  0  0  0  0  0  0  0  0  0  0
   -1.5726    0.8949    1.6873 C   0  0  0  0  0  0  0  0  0  0  0  0
   -0.4898    1.7423    1.5375 N   0  0  0  0  0  0  0  0  0  0  0  0
    0.0608    2.1885    0.2722 C   0  0  0  0  0  0  0  0  0  0  0  0
    1.1103    1.2261   -0.2225 C   0  0  0  0  0  0  0  0  0  0  0  0
    2.4574    1.4435    0.1090 C   0  0  0  0  0  0  0  0  0  0  0  0
    3.4611    0.5861   -0.3547 C   0  0  0  0  0  0  0  0  0  0  0  0
    3.1454   -0.5206   -1.1557 C   0  0  0  0  0  0  0  0  0  0  0  0
    4.2077   -1.4556   -1.7004 C   0  0  2  0  0  0  0  0  0  0  0  0
    5.2068   -1.9239   -0.6406 C   0  0  0  0  0  0  0  0  0  0  0  0
    4.9251   -0.8245   -2.8102 N   0  0  0  0  0  0  0  0  0  0  0  0
    1.7995   -0.7374   -1.4854 C   0  0  0  0  0  0  0  0  0  0  0  0
    0.8006    0.1132   -1.0107 C   0  0  0  0  0  0  0  0  0  0  0  0
   -0.4800   -0.2074   -1.3642 O   0  0  0  0  0  0  0  0  0  0  0  0
   -1.8544    0.4243    2.9165 C   0  0  0  0  0  0  0  0  0  0  0  0
   -3.0077   -0.4702    3.1069 C   0  0  0  0  0  0  0  0  0  0  0  0
   -3.4872   -1.1306    4.5642 S   0  0  0  0  0  0  0  0  0  0  0  0
   -3.7088   -0.7470    1.9703 N   0  0  0  0  0  0  0  0  0  0  0  0
  1  2  1  0
  2  3  1  0
  3  4  2  0
  4  5  1  0
  5  6  1  0
  6  7  1  0
  7  8  1  0
  8  9  2  0
  9 10  1  0
 10 11  2  0
 11 12  1  0
 12 13  1  1
 12 14  1  0
 11 15  1  0
 15 16  2  0
 16 17  1  0
  5 18  2  0
 18 19  1  0
 19 20  2  0
 19 21  1  0
 21  3  1  0
 16  8  1  0
M  END
>  <energy>  (125) 
-83.52

>  <full_id>  (125) 
MOL00004399-000562-02_1

>  <mol_id>  (125) 
MOL00004399-000562-02

>  <act_mol>  (125) 
0

>  <act_conf>  (125) 
0

$$$$
MOL00004272-001156-03
     RDKit          3D

 25 26  0  0  0  0  0  0  0  0999 V2000
   -3.0143    1.9828    2.1460 C   0  0  0  0  0  0  0  0  0  0  0  0
   -2.5053    2.6468    0.8733 C   0  0  0  0  0  0  0  0  0  0  0  0
   -2.9574    1.9174   -0.3990 C   0  0  1  0  0  0  0  0  0  0  0  0
   -2.5128    2.6920   -1.6404 C   0  0  0  0  0  0  0  0  0  0  0  0
   -2.4321    0.5628   -0.4377 N   0  0  0  0  0  0  0  0  0  0  0  0
   -3.0008   -0.4205   -1.2277 C   0  0  0  0  0  0  0  0  0  0  0  0
   -4.0746   -0.2816   -1.8055 O   0  0  0  0  0  0  0  0  0  0  0  0
   -2.1740   -1.7327   -1.2530 C   0  0  1  0  0  0  0  0  0  0  0  0
   -2.6801   -2.6575   -2.3636 C   0  0  0  0  0  0  0  0  0  0  0  0
   -0.7260   -1.4054   -1.2673 N   0  0  0  0  0  0  0  0  0  0  0  0
   -0.2165   -0.8539   -2.5261 C   0  0  0  0  0  0  0  0  0  0  0  0
    1.3006   -0.9310   -2.3648 C   0  0  0  0  0  0  0  0  0  0  0  0
    1.5407   -1.9784   -1.2695 C   0  0  1  0  0  0  0  0  0  0  0  0
    2.1039   -1.3637   -0.0720 N   0  0  0  0  0  0  0  0  0  0  0  0
    3.4434   -1.0689    0.0285 C   0  0  0  0  0  0  0  0  0  0  0  0
    4.2600   -1.4324   -0.8149 O   0  0  0  0  0  0  0  0  0  0  0  0
    3.9140   -0.3288    1.2337 C   0  0  0  0  0  0  0  0  0  0  0  0
    5.2497   -0.5619    1.6073 C   0  0  0  0  0  0  0  0  0  0  0  0
    5.7928    0.0668    2.7213 C   0  0  0  0  0  0  0  0  0  0  0  0
    4.9811    0.9201    3.4361 C   0  0  0  0  0  0  0  0  0  0  0  0
    3.6979    1.1790    3.1070 N   0  0  0  0  0  0  0  0  0  0  0  0
    3.1698    0.5666    2.0107 C   0  0  0  0  0  0  0  0  0  0  0  0
    1.4762    1.0371    1.6387 S   0  0  0  0  0  0  0  0  0  0  0  0
    1.1269    2.1887    2.9968 C   0  0  0  0  0  0  0  0  0  0  0  0
    0.1465   -2.5539   -0.9935 C   0  0  0  0  0  0  0  0  0  0  0  0
  1  2  1  0
  2  3  1  0
  3  4  1  6
  3  5  1  0
  5  6  1  0
  6  7  2  0
  6  8  1  0
  8  9  1  6
  8 10  1  0
 10 11  1  0
 11 12  1  0
 12 13  1  0
 13 14  1  1
 14 15  1  0
 15 16  2  0
 15 17  1  0
 17 18  2  0
 18 19  1  0
 19 20  2  0
 20 21  1  0
 21 22  2  0
 22 23  1  0
 23 24  1  0
 13 25  1  0
 25 10  1  0
 22 17  1  0
M  END
>  <energy>  (126) 
42.79

>  <full_id>  (126) 
MOL00004272-001156-03_1

>  <mol_id>  (126) 
MOL00004272-001156-03

>  <act_mol>  (126) 
0

>  <act_conf>  (126) 
0

$$$$
MOL00003863-000002-03
     RDKit          3D

 34 36  0  0  0  0  0  0  0  0999 V2000
    4.3556   -3.0070   -1.0288 C   0  0  0  0  0  0  0  0  0  0  0  0
    3.2374   -2.7978   -0.0535 C   0  0  0  0  0  0  0  0  0  0  0  0
    2.6349   -3.7073    0.5084 O   0  0  0  0  0  0  0  0  0  0  0  0
    2.8268   -1.3682    0.2269 C   0  0  0  0  0  0  0  0  0  0  0  0
    1.5808   -0.9739    0.1431 N   0  0  0  0  0  0  0  0  0  0  0  0
    0.6378   -1.9035   -0.1707 N   0  0  0  0  0  0  0  0  0  0  0  0
   -0.7168   -1.4997   -0.1094 C   0  0  0  0  0  0  0  0  0  0  0  0
   -1.6925   -2.4766    0.1290 C   0  0  0  0  0  0  0  0  0  0  0  0
   -1.3073   -3.7458    0.3367 F   0  0  0  0  0  0  0  0  0  0  0  0
   -3.0590   -2.1837    0.1787 C   0  0  0  0  0  0  0  0  0  0  0  0
   -3.5224   -0.8771   -0.0303 C   0  0  0  0  0  0  0  0  0  0  0  0
   -4.9584   -0.5596    0.0218 C   0  0  0  0  0  0  0  0  0  0  0  0
   -5.4405    0.4767    0.8397 C   0  0  0  0  0  0  0  0  0  0  0  0
   -6.8031    0.7826    0.8915 C   0  0  0  0  0  0  0  0  0  0  0  0
   -7.7108    0.0559    0.1236 C   0  0  0  0  0  0  0  0  0  0  0  0
   -7.2564   -0.9788   -0.6973 C   0  0  0  0  0  0  0  0  0  0  0  0
   -8.1859   -1.7283   -1.4906 C   0  0  0  0  0  0  0  0  0  0  0  0
   -8.9354   -2.3381   -2.1334 N   0  0  0  0  0  0  0  0  0  0  0  0
   -5.8889   -1.2823   -0.7455 C   0  0  0  0  0  0  0  0  0  0  0  0
   -2.5701    0.1150   -0.3025 C   0  0  0  0  0  0  0  0  0  0  0  0
   -1.2010   -0.2087   -0.3467 C   0  0  0  0  0  0  0  0  0  0  0  0
   -0.3002    0.8615   -0.7041 N   0  0  0  0  0  4  0  0  0  0  0  0
   -0.0731    1.0274   -1.9101 O   0  0  0  0  0  0  0  0  0  0  0  0
    0.1307    1.5735    0.2170 O   0  0  0  0  0  1  0  0  0  0  0  0
    3.8554   -0.3165    0.6143 C   0  0  0  0  0  0  0  0  0  0  0  0
    5.0185   -0.6722    0.7267 O   0  0  0  0  0  0  0  0  0  0  0  0
    3.3166    0.9418    0.7885 N   0  0  0  0  0  0  0  0  0  0  0  0
    3.9893    2.1253    1.1426 C   0  0  0  0  0  0  0  0  0  0  0  0
    3.2198    3.2910    1.2488 C   0  0  0  0  0  0  0  0  0  0  0  0
    3.8140    4.5064    1.5965 C   0  0  0  0  0  0  0  0  0  0  0  0
    5.1793    4.5583    1.8393 C   0  0  0  0  0  0  0  0  0  0  0  0
    5.7214    5.7622    2.1764 O   0  0  0  0  0  0  0  0  0  0  0  0
    5.9602    3.4130    1.7391 C   0  0  0  0  0  0  0  0  0  0  0  0
    5.3629    2.1960    1.3902 C   0  0  0  0  0  0  0  0  0  0  0  0
  1  2  1  0
  2  3  2  0
  2  4  1  0
  4  5  2  0
  5  6  1  0
  6  7  1  0
  7  8  2  0
  8  9  1  0
  8 10  1  0
 10 11  2  0
 11 12  1  0
 12 13  2  0
 13 14  1  0
 14 15  2  0
 15 16  1  0
 16 17  1  0
 17 18  3  0
 16 19  2  0
 11 20  1  0
 20 21  2  0
 21 22  1  0
 22 23  2  0
 22 24  1  0
  4 25  1  0
 25 26  2  0
 25 27  1  0
 27 28  1  0
 28 29  2  0
 29 30  1  0
 30 31  2  0
 31 32  1  0
 31 33  1  0
 33 34  2  0
 21  7  1  0
 34 28  1  0
 19 12  1  0
M  CHG  2  22   1  24  -1
M  END
>  <energy>  (127) 
138.47

>  <full_id>  (127) 
MOL00003863-000002-03_1

>  <mol_id>  (127) 
MOL00003863-000002-03

>  <act_mol>  (127) 
0

>  <act_conf>  (127) 
0

$$$$
MOL00004277-000010-04
     RDKit          3D

 30 32  0  0  0  0  0  0  0  0999 V2000
    9.8466    1.0009    2.4567 C   0  0  0  0  0  0  0  0  0  0  0  0
    9.7526    0.9991    1.0378 O   0  0  0  0  0  0  0  0  0  0  0  0
    8.5294    0.7087    0.5003 C   0  0  0  0  0  0  0  0  0  0  0  0
    7.3631    0.4331    1.2123 C   0  0  0  0  0  0  0  0  0  0  0  0
    6.1715    0.1497    0.5313 C   0  0  0  0  0  0  0  0  0  0  0  0
    6.1315    0.1283   -0.8682 C   0  0  0  0  0  0  0  0  0  0  0  0
    4.8944   -0.1328   -1.6162 C   0  0  0  0  0  0  0  0  0  0  0  0
    3.9594   -1.0208   -1.2402 C   0  0  0  0  0  0  0  0  0  0  0  0
    2.7126   -1.2956   -2.0140 C   0  0  0  0  0  0  0  0  0  0  0  0
    1.6016   -0.8403   -1.2275 N   0  0  0  0  0  0  0  0  0  0  0  0
    0.3148   -1.2294   -1.5161 C   0  0  0  0  0  0  0  0  0  0  0  0
   -0.0189   -2.0871   -2.3224 O   0  0  0  0  0  0  0  0  0  0  0  0
   -0.7640   -0.4622   -0.7201 C   0  0  0  0  0  0  0  0  0  0  0  0
   -0.4130    0.4447    0.0211 O   0  0  0  0  0  0  0  0  0  0  0  0
   -2.0293   -0.9397   -0.9844 N   0  0  0  0  0  0  0  0  0  0  0  0
   -3.2488   -0.4956   -0.4493 C   0  0  0  0  0  0  0  0  0  0  0  0
   -4.4118   -1.1401   -0.8796 C   0  0  0  0  0  0  0  0  0  0  0  0
   -5.6684   -0.7561   -0.3915 C   0  0  0  0  0  0  0  0  0  0  0  0
   -5.7895    0.2810    0.5379 C   0  0  0  0  0  0  0  0  0  0  0  0
   -7.0419    0.6845    1.0436 N   0  0  0  0  0  0  0  0  0  0  0  0
   -7.1279    1.7151    1.9634 N   0  0  0  0  0  0  0  0  0  0  0  0
   -8.3944    1.8150    2.2017 C   0  0  0  0  0  0  0  0  0  0  0  0
   -9.1755    0.9511    1.5339 N   0  0  0  0  0  0  0  0  0  0  0  0
  -10.6074    0.8207    1.5796 C   0  0  0  0  0  0  0  0  0  0  0  0
   -8.3315    0.1891    0.7583 C   0  0  0  0  0  0  0  0  0  0  0  0
   -8.6795   -0.7071    0.0045 O   0  0  0  0  0  0  0  0  0  0  0  0
   -4.6173    0.9215    0.9634 C   0  0  0  0  0  0  0  0  0  0  0  0
   -3.3595    0.5390    0.4764 C   0  0  0  0  0  0  0  0  0  0  0  0
    7.3016    0.4226   -1.5755 C   0  0  0  0  0  0  0  0  0  0  0  0
    8.4902    0.7043   -0.8950 C   0  0  0  0  0  0  0  0  0  0  0  0
  1  2  1  0
  2  3  1  0
  3  4  2  0
  4  5  1  0
  5  6  2  0
  6  7  1  0
  7  8  2  3
  8  9  1  0
  9 10  1  0
 10 11  1  0
 11 12  2  0
 11 13  1  0
 13 14  2  0
 13 15  1  0
 15 16  1  0
 16 17  2  0
 17 18  1  0
 18 19  2  0
 19 20  1  0
 20 21  1  0
 21 22  2  0
 22 23  1  0
 23 24  1  0
 23 25  1  0
 25 26  2  0
 19 27  1  0
 27 28  2  0
  6 29  1  0
 29 30  2  0
 30  3  1  0
 28 16  1  0
 25 20  1  0
M  END
>  <energy>  (128) 
37.16

>  <full_id>  (128) 
MOL00004277-000010-04_1

>  <mol_id>  (128) 
MOL00004277-000010-04

>  <act_mol>  (128) 
0

>  <act_conf>  (128) 
0

$$$$
MOL00004427-001724-03
     RDKit          3D

 26 28  0  0  0  0  0  0  0  0999 V2000
   -5.1438    0.6848    2.1970 C   0  0  0  0  0  0  0  0  0  0  0  0
   -4.7086   -0.5915    1.7453 O   0  0  0  0  0  0  0  0  0  0  0  0
   -4.9783   -0.9423    0.3565 C   0  0  0  0  0  0  0  0  0  0  0  0
   -4.0828   -0.1452   -0.6026 C   0  0  0  0  0  0  0  0  0  0  0  0
   -2.7202   -0.2699   -0.1344 N   0  0  0  0  0  0  0  0  0  0  0  0
   -1.6477    0.1381   -0.8886 C   0  0  0  0  0  0  0  0  0  0  0  0
   -1.6893    0.5215   -2.0497 O   0  0  0  0  0  0  0  0  0  0  0  0
   -0.2959    0.0941   -0.1417 C   0  0  0  0  0  0  0  0  0  0  0  0
   -0.2768   -0.2145    1.0412 O   0  0  0  0  0  0  0  0  0  0  0  0
    0.7571    0.4333   -0.9618 N   0  0  0  0  0  0  0  0  0  0  0  0
    2.1229    0.4992   -0.6347 C   0  0  0  0  0  0  0  0  0  0  0  0
    2.6407    0.2087    0.6255 C   0  0  0  0  0  0  0  0  0  0  0  0
    4.0223    0.2978    0.8725 C   0  0  0  0  0  0  0  0  0  0  0  0
    4.9093    0.6798   -0.1409 C   0  0  0  0  0  0  0  0  0  0  0  0
    6.3173    0.7865    0.0546 N   0  0  0  0  0  0  0  0  0  0  0  0
    7.1143    1.1735   -0.9758 N   0  0  0  0  0  0  0  0  0  0  0  0
    8.3521    1.1887   -0.5167 N   0  0  0  0  0  0  0  0  0  0  0  0
    8.3898    0.8186    0.7920 N   0  0  0  0  0  0  0  0  0  0  0  0
    7.1451    0.5682    1.1522 C   0  0  0  0  0  0  0  0  0  0  0  0
    6.7559    0.1295    2.5069 C   0  0  0  0  0  0  0  0  0  0  0  0
    4.3829    0.9724   -1.4108 C   0  0  0  0  0  0  0  0  0  0  0  0
    3.0119    0.8798   -1.6419 C   0  0  0  0  0  0  0  0  0  0  0  0
    2.5416    1.1655   -2.8662 F   0  0  0  0  0  0  0  0  0  0  0  0
   -4.9523   -2.4838    0.0987 C   0  0  0  0  0  0  0  0  0  0  0  0
   -6.1933   -2.3153   -0.7934 C   0  0  0  0  0  0  0  0  0  0  0  0
   -6.4828   -1.0006   -0.0507 C   0  0  0  0  0  0  0  0  0  0  0  0
  1  2  1  0
  2  3  1  0
  3  4  1  0
  4  5  1  0
  5  6  1  0
  6  7  2  0
  6  8  1  0
  8  9  2  0
  8 10  1  0
 10 11  1  0
 11 12  2  0
 12 13  1  0
 13 14  2  0
 14 15  1  0
 15 16  1  0
 16 17  2  0
 17 18  1  0
 18 19  2  0
 19 20  1  0
 14 21  1  0
 21 22  2  0
 22 23  1  0
  3 24  1  0
 24 25  1  0
 25 26  1  0
 26  3  1  0
 22 11  1  0
 19 15  1  0
M  END
>  <energy>  (129) 
89.48

>  <full_id>  (129) 
MOL00004427-001724-03_1

>  <mol_id>  (129) 
MOL00004427-001724-03

>  <act_mol>  (129) 
0

>  <act_conf>  (129) 
0

$$$$
MOL00004548-000124-02
     RDKit          3D

 27 29  0  0  0  0  0  0  0  0999 V2000
   -6.9344    0.6393   -0.0443 C   0  0  0  0  0  0  0  0  0  0  0  0
   -5.6815    0.3466    0.6914 C   0  0  0  0  0  0  0  0  0  0  0  0
   -5.5099    0.1784    2.0768 C   0  0  0  0  0  0  0  0  0  0  0  0
   -4.1778   -0.1146    2.2473 C   0  0  0  0  0  0  0  0  0  0  0  0
   -3.5433   -0.4866    3.3917 N   0  0  0  0  0  0  0  0  0  0  0  0
   -3.5842   -0.0066    0.9775 N   0  0  0  0  0  0  0  0  0  0  0  0
   -2.1941   -0.0309    0.6288 C   0  0  0  0  0  0  0  0  0  0  0  0
   -1.2506    0.3825    1.5862 C   0  0  0  0  0  0  0  0  0  0  0  0
    0.1188    0.4083    1.2967 C   0  0  0  0  0  0  0  0  0  0  0  0
    0.5772    0.0345    0.0395 C   0  0  0  0  0  0  0  0  0  0  0  0
    1.9301    0.0370   -0.3364 N   0  0  0  0  0  0  0  0  0  0  0  0
    3.0391    0.3669    0.4218 C   0  0  0  0  0  0  0  0  0  0  0  0
    3.0336    0.7174    1.5954 O   0  0  0  0  0  0  0  0  0  0  0  0
    4.2862    0.2421   -0.3636 C   0  0  0  0  0  0  0  0  0  0  0  0
    4.2462   -0.1601   -1.6585 N   0  0  0  0  0  0  0  0  0  0  0  0
    5.5330   -0.1575   -2.0485 N   0  0  0  0  0  0  0  0  0  0  0  0
    6.4024    0.2225   -1.0732 C   0  0  0  0  0  0  0  0  0  0  0  0
    7.8440    0.2789   -1.3295 C   0  0  0  0  0  0  0  0  0  0  0  0
    8.5391   -0.5559   -0.5225 F   0  0  0  0  0  0  0  0  0  0  0  0
    8.1262   -0.0863   -2.6077 F   0  0  0  0  0  0  0  0  0  0  0  0
    8.3448    1.5245   -1.1596 F   0  0  0  0  0  0  0  0  0  0  0  0
    5.6260    0.4869    0.0263 C   0  0  0  0  0  0  0  0  0  0  0  0
    6.2311    1.0586    1.7042 Br  0  0  0  0  0  0  0  0  0  0  0  0
   -0.3554   -0.3639   -0.9254 C   0  0  0  0  0  0  0  0  0  0  0  0
   -1.7406   -0.4115   -0.6540 C   0  0  0  0  0  0  0  0  0  0  0  0
   -2.6430   -0.8896   -1.7618 C   0  0  0  0  0  0  0  0  0  0  0  0
   -4.5378    0.1832    0.0236 N   0  0  0  0  0  0  0  0  0  0  0  0
  1  2  1  0
  2  3  1  0
  3  4  2  0
  4  5  1  0
  4  6  1  0
  6  7  1  0
  7  8  2  0
  8  9  1  0
  9 10  2  0
 10 11  1  0
 11 12  1  0
 12 13  2  0
 12 14  1  0
 14 15  2  0
 15 16  1  0
 16 17  1  0
 17 18  1  0
 18 19  1  0
 18 20  1  0
 18 21  1  0
 17 22  2  0
 22 23  1  0
 10 24  1  0
 24 25  2  0
 25 26  1  0
  6 27  1  0
 27  2  2  0
 25  7  1  0
 22 14  1  0
M  END
>  <energy>  (130) 
86.62

>  <full_id>  (130) 
MOL00004548-000124-02_1

>  <mol_id>  (130) 
MOL00004548-000124-02

>  <act_mol>  (130) 
0

>  <act_conf>  (130) 
0

$$$$
MOL00004114-003992-02
     RDKit          3D

 33 35  0  0  0  0  0  0  0  0999 V2000
   -1.6656    1.7718   -3.5277 C   0  0  0  0  0  0  0  0  0  0  0  0
   -0.9354    1.8112   -2.3063 O   0  0  0  0  0  0  0  0  0  0  0  0
   -0.9328    0.6830   -1.5290 C   0  0  0  0  0  0  0  0  0  0  0  0
   -1.6220   -0.4918   -1.8472 C   0  0  0  0  0  0  0  0  0  0  0  0
   -1.6056   -1.5785   -0.9610 C   0  0  0  0  0  0  0  0  0  0  0  0
   -2.5085   -3.0593   -1.3686 S   0  0  0  0  0  6  0  0  0  0  0  0
   -2.7926   -3.0310   -2.7885 O   0  0  0  0  0  0  0  0  0  0  0  0
   -1.8052   -4.1734   -0.7695 O   0  0  0  0  0  0  0  0  0  0  0  0
   -3.9529   -2.8808   -0.5161 N   0  0  0  0  0  0  0  0  0  0  0  0
   -4.6969   -1.7194   -0.8065 C   0  0  0  0  0  0  0  0  0  0  0  0
   -5.3871   -1.5655   -1.9824 C   0  0  0  0  0  0  0  0  0  0  0  0
   -6.0055   -0.3479   -2.1457 C   0  0  0  0  0  0  0  0  0  0  0  0
   -6.7837   -0.0529   -3.3911 C   0  0  0  0  0  0  0  0  0  0  0  0
   -5.9165    0.6308   -1.2203 N   0  0  0  0  0  0  0  0  0  0  0  0
   -5.2152    0.3673   -0.1012 C   0  0  0  0  0  0  0  0  0  0  0  0
   -5.0969    1.4517    0.9242 C   0  0  0  0  0  0  0  0  0  0  0  0
   -4.5843   -0.7917    0.1471 N   0  0  0  0  0  0  0  0  0  0  0  0
   -0.8845   -1.5256    0.2321 C   0  0  0  0  0  0  0  0  0  0  0  0
   -0.1951   -0.3595    0.5534 C   0  0  0  0  0  0  0  0  0  0  0  0
   -0.2113    0.7364   -0.3237 C   0  0  0  0  0  0  0  0  0  0  0  0
    0.5586    1.9342    0.0953 C   0  0  0  0  0  0  0  0  0  0  0  0
    0.4816    2.3166    1.2631 O   0  0  0  0  0  0  0  0  0  0  0  0
    1.4530    2.6196   -0.9198 C   0  0  0  0  0  0  0  0  0  0  0  0
    2.7606    3.0528   -0.2629 C   0  0  0  0  0  0  0  0  0  0  0  0
    3.6052    1.8575    0.1545 C   0  0  0  0  0  0  0  0  0  0  0  0
    3.3795    0.7294   -0.2728 O   0  0  0  0  0  0  0  0  0  0  0  0
    4.6279    2.2291    1.0108 N   0  0  0  0  0  0  0  0  0  0  0  0
    5.6122    1.3998    1.5863 C   0  0  0  0  0  0  0  0  0  0  0  0
    6.5172    2.0017    2.4710 C   0  0  0  0  0  0  0  0  0  0  0  0
    7.5217    1.2500    3.0858 C   0  0  0  0  0  0  0  0  0  0  0  0
    7.6328   -0.1119    2.8205 C   0  0  0  0  0  0  0  0  0  0  0  0
    6.7399   -0.7188    1.9411 C   0  0  0  0  0  0  0  0  0  0  0  0
    5.7336    0.0335    1.3264 C   0  0  0  0  0  0  0  0  0  0  0  0
  1  2  1  0
  2  3  1  0
  3  4  2  0
  4  5  1  0
  5  6  1  0
  6  7  2  0
  6  8  2  0
  6  9  1  0
  9 10  1  0
 10 11  2  0
 11 12  1  0
 12 13  1  0
 12 14  2  0
 14 15  1  0
 15 16  1  0
 15 17  2  0
  5 18  2  0
 18 19  1  0
 19 20  2  0
 20 21  1  0
 21 22  2  0
 21 23  1  0
 23 24  1  0
 24 25  1  0
 25 26  2  0
 25 27  1  0
 27 28  1  0
 28 29  2  0
 29 30  1  0
 30 31  2  0
 31 32  1  0
 32 33  2  0
 20  3  1  0
 33 28  1  0
 17 10  1  0
M  END
>  <energy>  (131) 
-80.76

>  <full_id>  (131) 
MOL00004114-003992-02_1

>  <mol_id>  (131) 
MOL00004114-003992-02

>  <act_mol>  (131) 
0

>  <act_conf>  (131) 
0

$$$$
MOL00004662-000959-03
     RDKit          3D

 22 24  0  0  0  0  0  0  0  0999 V2000
    5.5625   -3.2477   -3.2661 C   0  0  0  0  0  0  0  0  0  0  0  0
    4.5636   -2.7809   -2.3702 O   0  0  0  0  0  0  0  0  0  0  0  0
    4.6525   -1.3696   -2.1754 C   0  0  0  0  0  0  0  0  0  0  0  0
    3.5815   -0.9056   -1.2169 C   0  0  0  0  0  0  0  0  0  0  0  0
    3.0013    0.3613   -1.3731 C   0  0  0  0  0  0  0  0  0  0  0  0
    2.0359    0.8174   -0.4711 C   0  0  0  0  0  0  0  0  0  0  0  0
    1.6360    0.0130    0.6018 C   0  0  0  0  0  0  0  0  0  0  0  0
    0.6038    0.5386    1.5373 C   0  0  0  0  0  0  0  0  0  0  0  0
    0.4075    1.7467    1.6387 O   0  0  0  0  0  0  0  0  0  0  0  0
   -0.1429   -0.3980    2.2199 N   0  0  0  0  0  0  0  0  0  0  0  0
   -1.2354    0.0018    3.0817 C   0  0  0  0  0  0  0  0  0  0  0  0
   -2.4334    0.3062    2.2533 C   0  0  0  0  0  0  0  0  0  0  0  0
   -3.5234   -0.4227    2.1146 N   0  0  0  0  0  0  0  0  0  0  0  0
   -4.3245    0.2807    1.2462 C   0  0  0  0  0  0  0  0  0  0  0  0
   -5.5988   -0.0303    0.7503 C   0  0  0  0  0  0  0  0  0  0  0  0
   -6.2095    0.8617   -0.1410 C   0  0  0  0  0  0  0  0  0  0  0  0
   -5.5639    2.0381   -0.5311 C   0  0  0  0  0  0  0  0  0  0  0  0
   -4.2918    2.3654   -0.0468 C   0  0  0  0  0  0  0  0  0  0  0  0
   -3.7087    1.4602    0.8420 C   0  0  0  0  0  0  0  0  0  0  0  0
   -2.5066    1.4531    1.4971 N   0  0  0  0  0  0  0  0  0  0  0  0
    2.2304   -1.2407    0.7822 C   0  0  0  0  0  0  0  0  0  0  0  0
    3.1972   -1.6926   -0.1212 C   0  0  0  0  0  0  0  0  0  0  0  0
  1  2  1  0
  2  3  1  0
  3  4  1  0
  4  5  2  0
  5  6  1  0
  6  7  2  0
  7  8  1  0
  8  9  2  0
  8 10  1  0
 10 11  1  0
 11 12  1  0
 12 13  2  0
 13 14  1  0
 14 15  2  0
 15 16  1  0
 16 17  2  0
 17 18  1  0
 18 19  2  0
 19 20  1  0
  7 21  1  0
 21 22  2  0
 22  4  1  0
 20 12  1  0
 19 14  1  0
M  END
>  <energy>  (132) 
22.24

>  <full_id>  (132) 
MOL00004662-000959-03_1

>  <mol_id>  (132) 
MOL00004662-000959-03

>  <act_mol>  (132) 
0

>  <act_conf>  (132) 
0

$$$$
MOL00004631-001824-03
     RDKit          3D

 27 30  0  0  0  0  0  0  0  0999 V2000
    5.2144    1.0687    4.2620 C   0  0  0  0  0  0  0  0  0  0  0  0
    5.5581    1.1471    2.7824 C   0  0  0  0  0  0  0  0  0  0  0  0
    4.8312    0.1043    1.9831 C   0  0  0  0  0  0  0  0  0  0  0  0
    5.3786   -1.1480    1.7610 C   0  0  0  0  0  0  0  0  0  0  0  0
    4.7692   -2.1341    1.0651 N   0  0  0  0  0  0  0  0  0  0  0  0
    3.5600   -1.9184    0.5514 C   0  0  0  0  0  0  0  0  0  0  0  0
    3.0053   -2.9209   -0.1235 N   0  0  0  0  0  0  0  0  0  0  0  0
    1.7873   -2.6741   -0.6263 C   0  0  0  0  0  0  0  0  0  0  0  0
    1.0219   -3.5371   -1.3489 N   0  0  0  0  0  0  0  0  0  0  0  0
   -0.1578   -3.0198   -1.7333 N   0  0  0  0  0  0  0  0  0  0  0  0
   -0.1598   -1.7825   -1.2305 C   0  0  0  0  0  0  0  0  0  0  0  0
   -1.1867   -0.8667   -1.3812 N   0  0  0  0  0  0  0  0  0  0  0  0
   -2.3982   -1.1336   -1.9852 C   0  0  0  0  0  0  0  0  0  0  0  0
   -2.8072   -2.2144   -2.3990 O   0  0  0  0  0  0  0  0  0  0  0  0
   -3.3397    0.0187   -2.0820 C   0  0  0  0  0  0  0  0  0  0  0  0
   -2.8775    1.3360   -2.1792 C   0  0  0  0  0  0  0  0  0  0  0  0
   -3.7929    2.3845   -2.2482 C   0  0  0  0  0  0  0  0  0  0  0  0
   -3.3230    3.6365   -2.3425 F   0  0  0  0  0  0  0  0  0  0  0  0
   -5.1711    2.1600   -2.2236 C   0  0  0  0  0  0  0  0  0  0  0  0
   -6.1306    3.3056   -2.3287 C   0  0  0  0  0  0  0  0  0  0  0  0
   -5.6320    0.8405   -2.1669 C   0  0  0  0  0  0  0  0  0  0  0  0
   -4.7240   -0.2178   -2.1045 C   0  0  0  0  0  0  0  0  0  0  0  0
   -5.2666   -1.4752   -2.0701 O   0  0  0  0  0  0  0  0  0  0  0  0
    1.0499   -1.5104   -0.5257 C   0  0  0  0  0  0  0  0  0  0  0  0
    1.6328   -0.4541    0.1848 C   0  0  0  0  0  0  0  0  0  0  0  0
    2.9130   -0.6720    0.7296 C   0  0  0  0  0  0  0  0  0  0  0  0
    3.5648    0.3359    1.4551 C   0  0  0  0  0  0  0  0  0  0  0  0
  1  2  1  0
  2  3  1  0
  3  4  2  0
  4  5  1  0
  5  6  2  0
  6  7  1  0
  7  8  2  0
  8  9  1  0
  9 10  1  0
 10 11  2  0
 11 12  1  0
 12 13  1  0
 13 14  2  0
 13 15  1  0
 15 16  2  0
 16 17  1  0
 17 18  1  0
 17 19  2  0
 19 20  1  0
 19 21  1  0
 21 22  2  0
 22 23  1  0
 11 24  1  0
 24 25  2  0
 25 26  1  0
 26 27  2  0
 27  3  1  0
 26  6  1  0
 24  8  1  0
 22 15  1  0
M  END
>  <energy>  (133) 
39.92

>  <full_id>  (133) 
MOL00004631-001824-03_1

>  <mol_id>  (133) 
MOL00004631-001824-03

>  <act_mol>  (133) 
0

>  <act_conf>  (133) 
0

$$$$
MOL00004010-001672-03
     RDKit          3D

 34 38  0  0  0  0  0  0  0  0999 V2000
    0.4749    1.0736   -0.9847 O   0  0  0  0  0  0  0  0  0  0  0  0
    1.0361    0.0277   -0.6800 C   0  0  0  0  0  0  0  0  0  0  0  0
    1.9268   -0.0934    0.3642 N   0  0  0  0  0  0  0  0  0  0  0  0
    2.1604    1.0087    1.2786 C   0  0  0  0  0  0  0  0  0  0  0  0
    0.9910    1.2697    2.2272 C   0  0  0  0  0  0  0  0  0  0  0  0
    1.2997    2.3163    3.1877 N   0  0  0  0  0  0  0  0  0  0  0  0
    1.6879    2.1123    4.4867 C   0  0  0  0  0  0  0  0  0  0  0  0
    1.8782    3.3463    5.0698 C   0  0  0  0  0  0  0  0  0  0  0  0
    1.5947    4.3270    4.0875 C   0  0  0  0  0  0  0  0  0  0  0  0
    1.2378    3.6626    2.9343 C   0  0  0  0  0  0  0  0  0  0  0  0
    0.8563   -1.1988   -1.4455 C   0  0  0  0  0  0  0  0  0  0  0  0
   -0.3245   -1.9120   -1.5440 C   0  0  0  0  0  0  0  0  0  0  0  0
   -1.5525   -1.8737   -0.9226 N   0  0  0  0  0  0  0  0  0  0  0  0
   -1.7770   -1.3224    0.3173 C   0  0  0  0  0  0  0  0  0  0  0  0
   -0.9378   -0.8619    1.0773 O   0  0  0  0  0  0  0  0  0  0  0  0
   -3.1783   -1.3978    0.7656 C   0  0  0  0  0  0  0  0  0  0  0  0
   -4.2517   -0.0799    0.1381 S   0  0  0  0  0  6  0  0  0  0  0  0
   -5.5089   -0.1310    0.8635 O   0  0  0  0  0  0  0  0  0  0  0  0
   -4.2374   -0.2179   -1.3063 O   0  0  0  0  0  0  0  0  0  0  0  0
   -3.4374    1.4305    0.5789 C   0  0  0  0  0  0  0  0  0  0  0  0
   -2.6407    2.0898   -0.3594 C   0  0  0  0  0  0  0  0  0  0  0  0
   -2.0191    3.2883   -0.0076 C   0  0  0  0  0  0  0  0  0  0  0  0
   -2.2043    3.8264    1.2679 C   0  0  0  0  0  0  0  0  0  0  0  0
   -3.0099    3.1681    2.1987 C   0  0  0  0  0  0  0  0  0  0  0  0
   -3.6344    1.9685    1.8561 C   0  0  0  0  0  0  0  0  0  0  0  0
   -3.8869   -2.7255    0.9443 C   0  0  0  0  0  0  0  0  0  0  0  0
   -3.5297   -1.9005    2.1494 C   0  0  0  0  0  0  0  0  0  0  0  0
   -0.2661   -3.1356   -2.7315 S   0  0  0  0  0  0  0  0  0  0  0  0
    1.3681   -2.8216   -3.0586 C   0  0  0  0  0  0  0  0  0  0  0  0
    1.8655   -1.7677   -2.3145 C   0  0  0  0  0  0  0  0  0  0  0  0
    3.2656   -1.2563   -2.5132 C   0  0  0  0  0  0  0  0  0  0  0  0
    4.1403   -2.2514   -3.2929 C   0  0  0  0  0  0  0  0  0  0  0  0
    3.3989   -2.8433   -4.4993 C   0  0  0  0  0  0  0  0  0  0  0  0
    2.1426   -3.6131   -4.0669 C   0  0  0  0  0  0  0  0  0  0  0  0
  1  2  2  0
  2  3  1  0
  3  4  1  0
  4  5  1  0
  5  6  1  0
  6  7  1  0
  7  8  2  0
  8  9  1  0
  9 10  2  0
  2 11  1  0
 11 12  2  0
 12 13  1  0
 13 14  1  0
 14 15  2  0
 16 14  1  0
 16 17  1  0
 17 18  2  0
 17 19  2  0
 17 20  1  0
 20 21  2  0
 21 22  1  0
 22 23  2  0
 23 24  1  0
 24 25  2  0
 16 26  1  0
 26 27  1  0
 12 28  1  0
 28 29  1  0
 29 30  2  0
 30 31  1  0
 31 32  1  0
 32 33  1  0
 33 34  1  0
 10  6  1  0
 30 11  1  0
 27 16  1  0
 34 29  1  0
 25 20  1  0
M  END
>  <energy>  (134) 
43.46

>  <full_id>  (134) 
MOL00004010-001672-03_1

>  <mol_id>  (134) 
MOL00004010-001672-03

>  <act_mol>  (134) 
0

>  <act_conf>  (134) 
0

$$$$
MOL00004844-000834-02
     RDKit          3D

 26 28  0  0  0  0  0  0  0  0999 V2000
    8.4973   -0.9971   -1.0749 C   0  0  0  0  0  0  0  0  0  0  0  0
    7.7311    0.0926   -0.4968 N   0  0  0  0  0  0  0  0  0  0  0  0
    6.3394   -0.0073   -0.4117 C   0  0  0  0  0  0  0  0  0  0  0  0
    5.6576    0.8764    0.4337 C   0  0  0  0  0  0  0  0  0  0  0  0
    4.2586    0.8807    0.5250 C   0  0  0  0  0  0  0  0  0  0  0  0
    3.4935    0.0140   -0.2535 C   0  0  0  0  0  0  0  0  0  0  0  0
    2.0874   -0.0213   -0.1940 N   0  0  0  0  0  0  0  0  0  0  0  0
    1.2249    0.7154    0.5910 C   0  0  0  0  0  0  0  0  0  0  0  0
    1.5287    1.5687    1.4169 O   0  0  0  0  0  0  0  0  0  0  0  0
   -0.1832    0.3601    0.3330 C   0  0  0  0  0  0  0  0  0  0  0  0
   -1.3332    0.9138    0.9511 C   0  0  0  0  0  0  0  0  0  0  0  0
   -2.4230    0.2733    0.3920 C   0  0  0  0  0  0  0  0  0  0  0  0
   -3.8682    0.4070    0.6158 C   0  0  0  0  0  0  0  0  0  0  0  0
   -4.3609    1.3297    1.5481 C   0  0  0  0  0  0  0  0  0  0  0  0
   -5.7354    1.4623    1.7662 C   0  0  0  0  0  0  0  0  0  0  0  0
   -6.6453    0.6754    1.0568 C   0  0  0  0  0  0  0  0  0  0  0  0
   -6.1845   -0.2513    0.1225 C   0  0  0  0  0  0  0  0  0  0  0  0
   -6.9719   -1.0781   -0.6335 O   0  0  0  0  0  0  0  0  0  0  0  0
   -8.3787   -0.9823   -0.4518 C   0  0  0  0  0  0  0  0  0  0  0  0
   -4.8029   -0.3740   -0.0862 C   0  0  0  0  0  0  0  0  0  0  0  0
   -4.3663   -1.2714   -0.9902 F   0  0  0  0  0  0  0  0  0  0  0  0
   -1.8717   -0.6069   -0.5080 N   0  0  0  0  0  0  0  0  0  0  0  0
   -0.5283   -0.5807   -0.5679 N   0  0  0  0  0  0  0  0  0  0  0  0
    4.1678   -0.8457   -1.1364 C   0  0  0  0  0  0  0  0  0  0  0  0
    3.1330   -2.1841   -2.3948 I   0  0  0  0  0  0  0  0  0  0  0  0
    5.5695   -0.8447   -1.2227 C   0  0  0  0  0  0  0  0  0  0  0  0
  1  2  1  0
  2  3  1  0
  3  4  2  0
  4  5  1  0
  5  6  2  0
  6  7  1  0
  7  8  1  0
  8  9  2  0
  8 10  1  0
 10 11  1  0
 11 12  2  0
 12 13  1  0
 13 14  2  0
 14 15  1  0
 15 16  2  0
 16 17  1  0
 17 18  1  0
 18 19  1  0
 17 20  2  0
 20 21  1  0
 12 22  1  0
 22 23  1  0
  6 24  1  0
 24 25  1  0
 24 26  2  0
 26  3  1  0
 23 10  2  0
 20 13  1  0
M  END
>  <energy>  (135) 
78.00

>  <full_id>  (135) 
MOL00004844-000834-02_1

>  <mol_id>  (135) 
MOL00004844-000834-02

>  <act_mol>  (135) 
0

>  <act_conf>  (135) 
0

$$$$
MOL00005609-000197-03
     RDKit          3D

 25 27  0  0  0  0  0  0  0  0999 V2000
   -5.0789    3.2311   -1.8400 O   0  0  0  0  0  0  0  0  0  0  0  0
   -4.2314    2.4198   -1.4777 C   0  0  0  0  0  0  0  0  0  0  0  0
   -4.5021    1.0136   -1.2760 C   0  0  0  0  0  0  0  0  0  0  0  0
   -3.6052   -0.0313   -0.8884 C   0  0  0  0  0  0  0  0  0  0  0  0
   -2.1600    0.0773   -0.6033 C   0  0  0  0  0  0  0  0  0  0  0  0
   -1.5660    1.1395   -0.7286 O   0  0  0  0  0  0  0  0  0  0  0  0
   -1.6187   -1.1335   -0.2262 N   0  0  0  0  0  0  0  0  0  0  0  0
   -0.2968   -1.4456    0.1515 C   0  0  0  0  0  0  0  0  0  0  0  0
    0.7026   -0.4760    0.3193 C   0  0  0  0  0  0  0  0  0  0  0  0
    2.0294   -0.8039    0.6849 C   0  0  0  0  0  0  0  0  0  0  0  0
    2.9817    0.2561    0.7973 N   0  0  0  0  0  0  0  0  0  0  0  0
    4.4024    0.1039    0.6043 C   0  0  0  0  0  0  0  0  0  0  0  0
    4.8717    1.5004    0.2493 C   0  0  0  0  0  0  0  0  0  0  0  0
    3.9596    2.3852    1.0765 C   0  0  0  0  0  0  0  0  0  0  0  0
    2.6782    1.5873    1.1341 C   0  0  0  0  0  0  0  0  0  0  0  0
    1.6093    2.0618    1.4858 O   0  0  0  0  0  0  0  0  0  0  0  0
    2.3254   -2.1693    0.8828 C   0  0  0  0  0  0  0  0  0  0  0  0
    3.8550   -2.7765    1.4232 Cl  0  0  0  0  0  0  0  0  0  0  0  0
    1.3324   -3.1466    0.7297 C   0  0  0  0  0  0  0  0  0  0  0  0
    0.0351   -2.7873    0.3722 C   0  0  0  0  0  0  0  0  0  0  0  0
   -1.2492   -4.1786    0.1875 Br  0  0  0  0  0  0  0  0  0  0  0  0
   -4.2361   -1.2276   -0.8011 N   0  0  0  0  0  0  0  0  0  0  0  0
   -5.5106   -0.9416   -1.1275 N   0  0  0  0  0  0  0  0  0  0  0  0
   -5.7031    0.3673   -1.4151 C   0  0  0  0  0  0  0  0  0  0  0  0
   -7.2701    0.8531   -1.8428 Cl  0  0  0  0  0  0  0  0  0  0  0  0
  1  2  2  0
  2  3  1  0
  3  4  1  0
  4  5  1  0
  5  6  2  0
  5  7  1  0
  7  8  1  0
  8  9  2  0
  9 10  1  0
 10 11  1  0
 11 12  1  0
 12 13  1  0
 13 14  1  0
 14 15  1  0
 15 16  2  0
 10 17  2  0
 17 18  1  0
 17 19  1  0
 19 20  2  0
 20 21  1  0
  4 22  2  0
 22 23  1  0
 23 24  1  0
 24 25  1  0
 24  3  2  0
 20  8  1  0
 15 11  1  0
M  END
>  <energy>  (136) 
42.44

>  <full_id>  (136) 
MOL00005609-000197-03_1

>  <mol_id>  (136) 
MOL00005609-000197-03

>  <act_mol>  (136) 
0

>  <act_conf>  (136) 
0

$$$$
MOL00005210-001389-03
     RDKit          3D

 28 31  0  0  0  0  0  0  0  0999 V2000
    2.2540    1.1221    0.7137 C   0  0  0  0  0  0  0  0  0  0  0  0
    2.5341    0.0773   -0.3261 C   0  0  0  0  0  0  0  0  0  0  0  0
    3.5151    0.2872   -1.2879 C   0  0  0  0  0  0  0  0  0  0  0  0
    3.8323   -0.6538   -2.2465 C   0  0  0  0  0  0  0  0  0  0  0  0
    3.1880   -1.8665   -2.3243 C   0  0  0  0  0  0  0  0  0  0  0  0
    2.1762   -2.0995   -1.3851 C   0  0  0  0  0  0  0  0  0  0  0  0
    1.4350   -3.3411   -1.4963 N   0  0  0  0  0  4  0  0  0  0  0  0
    2.0897   -4.3914   -1.4664 O   0  0  0  0  0  0  0  0  0  0  0  0
    0.2173   -3.2499   -1.6997 O   0  0  0  0  0  1  0  0  0  0  0  0
    1.8320   -1.1469   -0.4017 C   0  0  0  0  0  0  0  0  0  0  0  0
    0.7906   -1.4831    0.5919 C   0  0  0  0  0  0  0  0  0  0  0  0
    0.9938   -2.4502    1.3136 O   0  0  0  0  0  0  0  0  0  0  0  0
   -0.2975   -0.6465    0.5720 N   0  0  0  0  0  0  0  0  0  0  0  0
   -1.4000   -0.7345    1.4034 C   0  0  0  0  0  0  0  0  0  0  0  0
   -1.6563   -1.6530    2.3890 C   0  0  0  0  0  0  0  0  0  0  0  0
   -2.8677   -1.3166    2.9065 N   0  0  0  0  0  0  0  0  0  0  0  0
   -3.5717   -1.9996    3.9646 C   0  0  0  0  0  0  0  0  0  0  0  0
   -3.4216   -0.2285    2.3396 N   0  0  0  0  0  0  0  0  0  0  0  0
   -2.5301    0.1458    1.3998 C   0  0  0  0  0  0  0  0  0  0  0  0
   -2.7375    1.3110    0.5233 C   0  0  0  0  0  0  0  0  0  0  0  0
   -3.9036    2.0683    0.6000 C   0  0  0  0  0  0  0  0  0  0  0  0
   -4.0535    3.1610   -0.2501 C   0  0  0  0  0  0  0  0  0  0  0  0
   -3.0404    3.4678   -1.1500 C   0  0  0  0  0  0  0  0  0  0  0  0
   -1.9109    2.6666   -1.1649 C   0  0  0  0  0  0  0  0  0  0  0  0
   -1.7298    1.5992   -0.3546 N   0  0  0  0  0  0  0  0  0  0  0  0
    4.8262   -0.2403   -3.0766 O   0  0  0  0  0  0  0  0  0  0  0  0
    5.1211    1.0604   -2.5302 C   0  0  0  0  0  0  0  0  0  0  0  0
    4.2825    1.4074   -1.4097 O   0  0  0  0  0  0  0  0  0  0  0  0
  1  2  1  0
  2  3  2  0
  3  4  1  0
  4  5  2  0
  5  6  1  0
  6  7  1  0
  7  8  2  0
  7  9  1  0
  6 10  2  0
 10 11  1  0
 11 12  2  0
 11 13  1  0
 13 14  1  0
 14 15  2  0
 15 16  1  0
 16 17  1  0
 16 18  1  0
 18 19  2  0
 19 20  1  0
 20 21  2  0
 21 22  1  0
 22 23  2  0
 23 24  1  0
 24 25  2  0
  4 26  1  0
 26 27  1  0
 27 28  1  0
 10  2  1  0
 19 14  1  0
 25 20  1  0
 28  3  1  0
M  CHG  2   7   1   9  -1
M  END
>  <energy>  (137) 
63.60

>  <full_id>  (137) 
MOL00005210-001389-03_1

>  <mol_id>  (137) 
MOL00005210-001389-03

>  <act_mol>  (137) 
0

>  <act_conf>  (137) 
0

$$$$
MOL00004989-000053-03
     RDKit          3D

 26 28  0  0  0  0  0  0  0  0999 V2000
    8.0483   -0.2526   -0.4555 C   0  0  0  0  0  0  0  0  0  0  0  0
    7.1039    0.9148   -0.2440 C   0  0  0  0  0  0  0  0  0  0  0  0
    5.7635    0.4447   -0.4289 O   0  0  0  0  0  0  0  0  0  0  0  0
    4.8146    1.3962   -0.2589 C   0  0  0  0  0  0  0  0  0  0  0  0
    5.0242    2.5669    0.0186 O   0  0  0  0  0  0  0  0  0  0  0  0
    3.5897    0.8433   -0.4592 N   0  0  0  0  0  0  0  0  0  0  0  0
    2.4013    1.6507   -0.5126 C   0  0  0  0  0  0  0  0  0  0  0  0
    1.1675    0.7898   -0.5074 C   0  0  0  0  0  0  0  0  0  0  0  0
    0.5402    0.4312   -1.7033 C   0  0  0  0  0  0  0  0  0  0  0  0
   -0.5973   -0.3820   -1.6915 C   0  0  0  0  0  0  0  0  0  0  0  0
   -1.1449   -0.8387   -0.4889 C   0  0  0  0  0  0  0  0  0  0  0  0
   -0.4629   -0.5595    0.7065 C   0  0  0  0  0  0  0  0  0  0  0  0
    0.6671    0.2747    0.6944 C   0  0  0  0  0  0  0  0  0  0  0  0
   -0.9217   -1.1637    2.0037 C   0  0  0  0  0  0  0  0  0  0  0  0
   -1.5275   -2.5296    1.7239 C   0  0  0  0  0  0  0  0  0  0  0  0
   -2.7088   -2.3686    0.7831 C   0  0  0  0  0  0  0  0  0  0  0  0
   -2.3488   -1.6497   -0.4760 N   0  0  0  0  0  0  0  0  0  0  0  0
   -3.7379   -1.0254   -1.3044 S   0  0  0  0  0  6  0  0  0  0  0  0
   -3.3830   -0.5602   -2.6292 O   0  0  0  0  0  0  0  0  0  0  0  0
   -4.8120   -1.9873   -1.1397 O   0  0  0  0  0  0  0  0  0  0  0  0
   -4.1703    0.4168   -0.3418 C   0  0  0  0  0  0  0  0  0  0  0  0
   -3.5213    1.6308   -0.5886 C   0  0  0  0  0  0  0  0  0  0  0  0
   -3.8722    2.7614    0.1488 C   0  0  0  0  0  0  0  0  0  0  0  0
   -4.8787    2.6823    1.1125 C   0  0  0  0  0  0  0  0  0  0  0  0
   -5.5447    1.4763    1.3364 C   0  0  0  0  0  0  0  0  0  0  0  0
   -5.1983    0.3408    0.6039 C   0  0  0  0  0  0  0  0  0  0  0  0
  1  2  1  0
  2  3  1  0
  3  4  1  0
  4  5  2  0
  4  6  1  0
  6  7  1  0
  7  8  1  0
  8  9  2  0
  9 10  1  0
 10 11  2  0
 11 12  1  0
 12 13  2  0
 12 14  1  0
 14 15  1  0
 15 16  1  0
 16 17  1  0
 18 17  1  0
 18 19  2  0
 18 20  2  0
 18 21  1  0
 21 22  2  0
 22 23  1  0
 23 24  2  0
 24 25  1  0
 25 26  2  0
 13  8  1  0
 26 21  1  0
 17 11  1  0
M  END
>  <energy>  (138) 
-57.88

>  <full_id>  (138) 
MOL00004989-000053-03_1

>  <mol_id>  (138) 
MOL00004989-000053-03

>  <act_mol>  (138) 
0

>  <act_conf>  (138) 
0

$$$$
MOL00005583-000063-03
     RDKit          3D

 24 26  0  0  0  0  0  0  0  0999 V2000
   -1.3386    1.5755    1.6028 C   0  0  0  0  0  0  0  0  0  0  0  0
   -2.4351    0.9825    2.2911 O   0  0  0  0  0  0  0  0  0  0  0  0
   -3.0386   -0.0815    1.6776 C   0  0  0  0  0  0  0  0  0  0  0  0
   -4.0801   -0.6621    2.4039 C   0  0  0  0  0  0  0  0  0  0  0  0
   -4.7804   -1.7551    1.8929 C   0  0  0  0  0  0  0  0  0  0  0  0
   -4.4425   -2.2758    0.6443 C   0  0  0  0  0  0  0  0  0  0  0  0
   -3.4023   -1.7051   -0.1031 C   0  0  0  0  0  0  0  0  0  0  0  0
   -3.0241   -2.2680   -1.4523 C   0  0  0  0  0  0  0  0  0  0  0  0
   -2.0334   -3.7899   -1.3302 S   0  0  0  0  0  0  0  0  0  0  0  0
   -0.4855   -3.1496   -0.9492 C   0  0  0  0  0  0  0  0  0  0  0  0
   -0.0543   -1.9210   -1.0628 N   0  0  0  0  0  0  0  0  0  0  0  0
    1.2230   -1.9944   -0.5939 C   0  0  0  0  0  0  0  0  0  0  0  0
    2.0692   -0.9314   -0.4783 N   0  0  0  0  0  0  0  0  0  0  0  0
    1.7288    0.3813   -0.7152 C   0  0  0  0  0  0  0  0  0  0  0  0
    0.6078    0.7531   -1.0543 O   0  0  0  0  0  0  0  0  0  0  0  0
    2.8322    1.3204   -0.4905 C   0  0  0  0  0  0  0  0  0  0  0  0
    4.1929    1.0997   -0.3538 C   0  0  0  0  0  0  0  0  0  0  0  0
    4.9268    2.3038   -0.1335 C   0  0  0  0  0  0  0  0  0  0  0  0
    4.1130    3.4153   -0.1179 C   0  0  0  0  0  0  0  0  0  0  0  0
    4.4942    4.8436    0.0731 C   0  0  0  0  0  0  0  0  0  0  0  0
    2.4761    2.9985   -0.3712 S   0  0  0  0  0  0  0  0  0  0  0  0
    1.6224   -3.2214   -0.2376 N   0  0  0  0  0  0  0  0  0  0  0  0
    0.5050   -3.9391   -0.4630 N   0  0  0  0  0  0  0  0  0  0  0  0
   -2.7045   -0.6045    0.4266 C   0  0  0  0  0  0  0  0  0  0  0  0
  1  2  1  0
  2  3  1  0
  3  4  2  0
  4  5  1  0
  5  6  2  0
  6  7  1  0
  7  8  1  0
  8  9  1  0
  9 10  1  0
 10 11  2  0
 11 12  1  0
 12 13  1  0
 13 14  1  0
 14 15  2  0
 14 16  1  0
 16 17  2  0
 17 18  1  0
 18 19  2  0
 19 20  1  0
 19 21  1  0
 12 22  2  0
 22 23  1  0
  7 24  2  0
 24  3  1  0
 23 10  1  0
 21 16  1  0
M  END
>  <energy>  (139) 
-35.40

>  <full_id>  (139) 
MOL00005583-000063-03_1

>  <mol_id>  (139) 
MOL00005583-000063-03

>  <act_mol>  (139) 
0

>  <act_conf>  (139) 
0

$$$$
MOL00004646-000444-04
     RDKit          3D

 32 35  0  0  0  0  0  0  0  0999 V2000
   -5.5718   -1.3749    2.7616 C   0  0  0  0  0  0  0  0  0  0  0  0
   -5.2550   -1.5794    1.2948 C   0  0  0  0  0  0  0  0  0  0  0  0
   -4.0801   -2.3662    1.1893 O   0  0  0  0  0  0  0  0  0  0  0  0
   -3.5046   -2.6205   -0.3039 P   0  0  0  0  0  5  0  0  0  0  0  0
   -4.5658   -3.1322   -1.2382 O   0  0  0  0  0  0  0  0  0  0  0  0
   -2.3599   -3.7271   -0.0076 O   0  0  0  0  0  0  0  0  0  0  0  0
   -2.8023   -5.0326    0.3224 C   0  0  0  0  0  0  0  0  0  0  0  0
   -1.5903   -5.9007    0.5928 C   0  0  0  0  0  0  0  0  0  0  0  0
   -2.6342   -1.1481   -0.7569 C   0  0  0  0  0  0  0  0  0  0  0  0
   -1.6394   -0.6214    0.0774 C   0  0  0  0  0  0  0  0  0  0  0  0
   -0.9232    0.5522   -0.2473 C   0  0  0  0  0  0  0  0  0  0  0  0
    0.1504    1.0397    0.6911 C   0  0  0  0  0  0  0  0  0  0  0  0
    1.3308    0.2149    0.5875 N   0  0  0  0  0  0  0  0  0  0  0  0
    2.3875    0.4073    1.4443 C   0  0  0  0  0  0  0  0  0  0  0  0
    2.3538    1.1857    2.3959 O   0  0  0  0  0  0  0  0  0  0  0  0
    3.6245   -0.4059    1.1194 C   0  0  0  0  0  0  0  0  0  0  0  0
    4.6924    0.5002    0.6195 C   0  0  0  0  0  0  0  0  0  0  0  0
    5.3579    0.3781   -0.5131 N   0  0  0  0  0  0  0  0  0  0  0  0
    6.2449    1.4270   -0.5359 C   0  0  0  0  0  0  0  0  0  0  0  0
    7.1974    1.7832   -1.5035 C   0  0  0  0  0  0  0  0  0  0  0  0
    7.9930    2.9186   -1.2850 C   0  0  0  0  0  0  0  0  0  0  0  0
    7.8421    3.6835   -0.1258 C   0  0  0  0  0  0  0  0  0  0  0  0
    6.8948    3.3330    0.8343 C   0  0  0  0  0  0  0  0  0  0  0  0
    6.7495    4.0661    1.9432 F   0  0  0  0  0  0  0  0  0  0  0  0
    6.1152    2.2054    0.6061 C   0  0  0  0  0  0  0  0  0  0  0  0
    5.1221    1.6010    1.3275 N   0  0  0  0  0  0  0  0  0  0  0  0
   -1.2333    1.1925   -1.4716 C   0  0  0  0  0  0  0  0  0  0  0  0
   -0.7350    2.3496   -2.1398 C   0  0  0  0  0  0  0  0  0  0  0  0
   -1.4264    2.4915   -3.3200 C   0  0  0  0  0  0  0  0  0  0  0  0
   -2.3249    1.4632   -3.4028 N   0  0  0  0  0  0  0  0  0  0  0  0
   -2.2274    0.6559   -2.2909 C   0  0  0  0  0  0  0  0  0  0  0  0
   -2.9402   -0.5013   -1.9621 C   0  0  0  0  0  0  0  0  0  0  0  0
  1  2  1  0
  2  3  1  0
  4  3  1  0
  4  5  2  0
  4  6  1  0
  6  7  1  0
  7  8  1  0
  4  9  1  0
  9 10  2  0
 10 11  1  0
 11 12  1  0
 12 13  1  0
 13 14  1  0
 14 15  2  0
 14 16  1  0
 16 17  1  0
 17 18  2  0
 18 19  1  0
 19 20  2  0
 20 21  1  0
 21 22  2  0
 22 23  1  0
 23 24  1  0
 23 25  2  0
 25 26  1  0
 11 27  2  0
 27 28  1  0
 28 29  2  0
 29 30  1  0
 30 31  1  0
 31 32  2  0
 32  9  1  0
 26 17  1  0
 31 27  1  0
 25 19  1  0
M  END
>  <energy>  (140) 
-25.20

>  <full_id>  (140) 
MOL00004646-000444-04_1

>  <mol_id>  (140) 
MOL00004646-000444-04

>  <act_mol>  (140) 
0

>  <act_conf>  (140) 
0

$$$$
MOL00004693-003786-02
     RDKit          3D

 30 32  0  0  0  0  0  0  0  0999 V2000
    7.3512   -3.0258   -1.4596 C   0  0  0  0  0  0  0  0  0  0  0  0
    6.5832   -2.9303   -0.2161 N   0  0  0  0  0  0  0  0  0  0  0  0
    7.2302   -3.5065    0.9617 C   0  0  0  0  0  0  0  0  0  0  0  0
    5.7194   -1.8382   -0.0604 C   0  0  0  0  0  0  0  0  0  0  0  0
    5.1447   -1.1889   -1.1714 C   0  0  0  0  0  0  0  0  0  0  0  0
    4.2623   -0.1091   -1.0359 C   0  0  0  0  0  0  0  0  0  0  0  0
    3.9191    0.3383    0.2361 C   0  0  0  0  0  0  0  0  0  0  0  0
    2.7868    1.6963    0.4070 S   0  0  0  0  0  6  0  0  0  0  0  0
    2.6757    2.0127    1.8194 O   0  0  0  0  0  0  0  0  0  0  0  0
    3.2060    2.7072   -0.5468 O   0  0  0  0  0  0  0  0  0  0  0  0
    1.1968    1.0850   -0.1005 C   0  0  0  0  0  0  0  0  0  0  0  0
    0.5621    0.1146    0.6724 C   0  0  0  0  0  0  0  0  0  0  0  0
   -0.6833   -0.3825    0.2698 C   0  0  0  0  0  0  0  0  0  0  0  0
   -1.3206    0.0837   -0.8958 C   0  0  0  0  0  0  0  0  0  0  0  0
   -2.5920   -0.4580   -1.3142 N   0  0  0  0  0  0  0  0  0  0  0  0
   -2.9722   -1.7649   -0.7687 C   0  0  0  0  0  0  0  0  0  0  0  0
   -3.5026    0.3113   -2.0621 C   0  0  0  0  0  0  0  0  0  0  0  0
   -3.3345    1.4955   -2.3733 O   0  0  0  0  0  0  0  0  0  0  0  0
   -4.8219   -0.3471   -2.4997 C   0  0  0  0  0  0  0  0  0  0  0  0
   -5.7226   -0.5839   -1.3561 N   0  0  0  0  0  0  0  0  0  0  0  0
   -6.1126    0.6688   -0.7275 C   0  0  0  0  0  0  0  0  0  0  0  0
   -6.9554    0.3516    0.3864 N   0  0  0  0  0  0  0  0  0  0  0  0
   -7.8381   -0.6726    0.3695 C   0  0  0  0  0  0  0  0  0  0  0  0
   -8.9677   -0.8784    1.5659 S   0  0  0  0  0  0  0  0  0  0  0  0
   -7.7296   -1.5382   -0.6645 N   0  0  0  0  0  0  0  0  0  0  0  0
   -6.9227   -1.2602   -1.8105 C   0  0  0  0  0  0  0  0  0  0  0  0
   -0.6563    1.0687   -1.6457 C   0  0  0  0  0  0  0  0  0  0  0  0
    0.5908    1.5729   -1.2547 C   0  0  0  0  0  0  0  0  0  0  0  0
    4.4593   -0.2725    1.3623 C   0  0  0  0  0  0  0  0  0  0  0  0
    5.3399   -1.3517    1.2060 C   0  0  0  0  0  0  0  0  0  0  0  0
  1  2  1  0
  2  3  1  0
  2  4  1  0
  4  5  2  0
  5  6  1  0
  6  7  2  0
  8  7  1  0
  8  9  2  0
  8 10  2  0
  8 11  1  0
 11 12  2  0
 12 13  1  0
 13 14  2  0
 14 15  1  0
 15 16  1  0
 15 17  1  0
 17 18  2  0
 17 19  1  0
 19 20  1  0
 20 21  1  0
 21 22  1  0
 22 23  1  0
 23 24  2  0
 23 25  1  0
 25 26  1  0
 14 27  1  0
 27 28  2  0
  7 29  1  0
 29 30  2  0
 30  4  1  0
 28 11  1  0
 26 20  1  0
M  END
>  <energy>  (141) 
-49.47

>  <full_id>  (141) 
MOL00004693-003786-02_1

>  <mol_id>  (141) 
MOL00004693-003786-02

>  <act_mol>  (141) 
0

>  <act_conf>  (141) 
0

$$$$
MOL00004608-001347-04
     RDKit          3D

 29 32  0  0  0  0  0  0  0  0999 V2000
   -2.7116   -4.8617   -1.0280 C   0  0  0  0  0  0  0  0  0  0  0  0
   -2.6796   -4.1878    0.3328 C   0  0  0  0  0  0  0  0  0  0  0  0
   -2.4241   -2.7627    0.2362 N   0  0  0  0  0  0  0  0  0  0  0  0
   -1.1430   -2.3871    0.1982 N   0  0  0  0  0  0  0  0  0  0  0  0
   -1.1588   -1.0600    0.1355 C   0  0  0  0  0  0  0  0  0  0  0  0
   -0.0067   -0.3030    0.0844 N   0  0  0  0  0  0  0  0  0  0  0  0
    1.2852   -0.7923    0.0673 C   0  0  0  0  0  0  0  0  0  0  0  0
    1.6282   -1.9695    0.0980 O   0  0  0  0  0  0  0  0  0  0  0  0
    2.2892    0.2984   -0.0055 C   0  0  0  0  0  0  0  0  0  0  0  0
    1.9028    1.5825   -0.1634 N   0  0  0  0  0  0  0  0  0  0  0  0
    3.0439    2.2790   -0.1955 N   0  0  0  0  0  0  0  0  0  0  0  0
    4.1613    1.5096   -0.0771 C   0  0  0  0  0  0  0  0  0  0  0  0
    3.7185    0.2083    0.0584 C   0  0  0  0  0  0  0  0  0  0  0  0
    4.5853   -0.9940    0.2237 C   0  0  0  0  0  0  0  0  0  0  0  0
    5.6162   -0.8492    1.3470 C   0  0  0  0  0  0  0  0  0  0  0  0
    6.7606    0.1239    1.0435 C   0  0  0  0  0  0  0  0  0  0  0  0
    6.3771    1.6071    1.0835 C   0  0  0  0  0  0  0  0  0  0  0  0
    5.5354    2.0720   -0.1046 C   0  0  0  0  0  0  0  0  0  0  0  0
   -2.5088   -0.5663    0.1195 C   0  0  0  0  0  0  0  0  0  0  0  0
   -3.1412    0.7021    0.0446 C   0  0  0  0  0  0  0  0  0  0  0  0
   -2.3443    1.9503   -0.0010 C   0  0  0  0  0  0  0  0  0  0  0  0
   -1.1947    2.0417    0.3934 O   0  0  0  0  0  0  0  0  0  0  0  0
   -3.0680    2.9568   -0.5546 O   0  0  0  0  0  0  0  0  0  0  0  0
   -2.3580    4.1919   -0.6595 C   0  0  0  0  0  0  0  0  0  0  0  0
   -4.5441    0.7716    0.0446 C   0  0  0  0  0  0  0  0  0  0  0  0
   -5.3156   -0.3817    0.1010 C   0  0  0  0  0  0  0  0  0  0  0  0
   -4.7364   -1.6610    0.1562 C   0  0  0  0  0  0  0  0  0  0  0  0
   -5.6547   -2.8506    0.2189 C   0  0  0  0  0  0  0  0  0  0  0  0
   -3.3193   -1.7175    0.1732 C   0  0  0  0  0  0  0  0  0  0  0  0
  1  2  1  0
  2  3  1  0
  3  4  1  0
  4  5  2  0
  5  6  1  0
  6  7  1  0
  7  8  2  0
  7  9  1  0
  9 10  2  0
 10 11  1  0
 11 12  1  0
 12 13  2  0
 13 14  1  0
 14 15  1  0
 15 16  1  0
 16 17  1  0
 17 18  1  0
  5 19  1  0
 19 20  2  0
 20 21  1  0
 21 22  2  0
 21 23  1  0
 23 24  1  0
 20 25  1  0
 25 26  2  0
 26 27  1  0
 27 28  1  0
 27 29  2  0
 29  3  1  0
 13  9  1  0
 29 19  1  0
 18 12  1  0
M  END
>  <energy>  (142) 
40.81

>  <full_id>  (142) 
MOL00004608-001347-04_1

>  <mol_id>  (142) 
MOL00004608-001347-04

>  <act_mol>  (142) 
0

>  <act_conf>  (142) 
0

$$$$
MOL00004527-000006-04
     RDKit          3D

 34 37  0  0  0  0  0  0  0  0999 V2000
    1.4750    2.7590    2.0909 C   0  0  0  0  0  0  0  0  0  0  0  0
    2.1684    1.9371    1.0457 C   0  0  0  0  0  0  0  0  0  0  0  0
    1.5181    1.6217   -0.1524 C   0  0  0  0  0  0  0  0  0  0  0  0
    2.1344    0.7992   -1.1006 C   0  0  0  0  0  0  0  0  0  0  0  0
    3.4057    0.2638   -0.8515 C   0  0  0  0  0  0  0  0  0  0  0  0
    4.0364   -0.6033   -1.7871 N   0  0  0  0  0  0  0  0  0  0  0  0
    5.3899   -0.7801   -1.7584 N   0  0  0  0  0  0  0  0  0  0  0  0
    5.6663   -1.5218   -2.8338 C   0  0  0  0  0  0  0  0  0  0  0  0
    7.0685   -1.9032   -3.1311 C   0  0  0  0  0  0  0  0  0  0  0  0
    4.5028   -1.8701   -3.5528 C   0  0  0  0  0  0  0  0  0  0  0  0
    3.4680   -1.3272   -2.8315 C   0  0  0  0  0  0  0  0  0  0  0  0
    2.0391   -1.5862   -3.1277 N   0  0  0  0  0  0  0  0  0  0  0  0
    1.3764   -2.8541   -2.1790 S   0  0  0  0  0  6  0  0  0  0  0  0
    2.3033   -3.2435   -1.1414 O   0  0  0  0  0  0  0  0  0  0  0  0
    0.8511   -3.8114   -3.1280 O   0  0  0  0  0  0  0  0  0  0  0  0
   -0.0072   -2.0399   -1.4214 C   0  0  0  0  0  0  0  0  0  0  0  0
    0.0428   -1.6930   -0.0692 C   0  0  0  0  0  0  0  0  0  0  0  0
   -1.0362   -1.0210    0.5156 C   0  0  0  0  0  0  0  0  0  0  0  0
   -2.1705   -0.7095   -0.2390 C   0  0  0  0  0  0  0  0  0  0  0  0
   -3.2800   -0.0179    0.2716 N   0  0  0  0  0  0  0  0  0  0  0  0
   -3.4522    0.5301    1.5285 C   0  0  0  0  0  0  0  0  0  0  0  0
   -2.6460    0.5243    2.4514 O   0  0  0  0  0  0  0  0  0  0  0  0
   -4.7722    1.1797    1.6633 C   0  0  0  0  0  0  0  0  0  0  0  0
   -5.2819    1.8467    2.8053 C   0  0  0  0  0  0  0  0  0  0  0  0
   -6.5392    2.2895    2.4544 C   0  0  0  0  0  0  0  0  0  0  0  0
   -7.4979    3.0201    3.2162 C   0  0  0  0  0  0  0  0  0  0  0  0
   -7.4073    3.4064    4.3696 O   0  0  0  0  0  0  0  0  0  0  0  0
   -8.6069    3.2647    2.4878 O   0  0  0  0  0  0  0  0  0  0  0  0
   -6.7144    1.8764    1.1641 N   0  0  0  0  0  0  0  0  0  0  0  0
   -5.6674    1.2025    0.6504 N   0  0  0  0  0  0  0  0  0  0  0  0
   -2.2235   -1.1004   -1.5863 C   0  0  0  0  0  0  0  0  0  0  0  0
   -1.1471   -1.7659   -2.1809 C   0  0  0  0  0  0  0  0  0  0  0  0
    4.0721    0.6037    0.3341 C   0  0  0  0  0  0  0  0  0  0  0  0
    3.4487    1.4208    1.2830 C   0  0  0  0  0  0  0  0  0  0  0  0
  1  2  1  0
  2  3  2  0
  3  4  1  0
  4  5  2  0
  5  6  1  0
  6  7  1  0
  7  8  2  0
  8  9  1  0
  8 10  1  0
 10 11  2  0
 11 12  1  0
 13 12  1  0
 13 14  2  0
 13 15  2  0
 13 16  1  0
 16 17  2  0
 17 18  1  0
 18 19  2  0
 19 20  1  0
 20 21  1  0
 21 22  2  0
 21 23  1  0
 23 24  1  0
 24 25  2  0
 25 26  1  0
 26 27  2  0
 26 28  1  0
 25 29  1  0
 29 30  1  0
 19 31  1  0
 31 32  2  0
  5 33  1  0
 33 34  2  0
 34  2  1  0
 11  6  1  0
 32 16  1  0
 30 23  2  0
M  END
>  <energy>  (143) 
38.25

>  <full_id>  (143) 
MOL00004527-000006-04_1

>  <mol_id>  (143) 
MOL00004527-000006-04

>  <act_mol>  (143) 
0

>  <act_conf>  (143) 
0

$$$$
MOL00004717-001834-03
     RDKit          3D

 31 33  0  0  0  0  0  0  0  0999 V2000
    6.2413   -1.3637   -4.5278 C   0  0  0  0  0  0  0  0  0  0  0  0
    7.0373   -0.7100   -3.0419 S   0  0  0  0  0  0  0  0  0  0  0  0
    5.8482   -1.0076   -1.8207 C   0  0  0  0  0  0  0  0  0  0  0  0
    6.2531   -1.6224   -0.6771 N   0  0  0  0  0  0  0  0  0  0  0  0
    5.2569   -1.8414    0.1945 N   0  0  0  0  0  0  0  0  0  0  0  0
    4.1860   -1.2767   -0.3793 C   0  0  0  0  0  0  0  0  0  0  0  0
    3.0256   -1.3376    0.3611 N   0  0  0  0  0  0  0  0  0  0  0  0
    1.8584   -0.6654    0.1164 C   0  0  0  0  0  0  0  0  0  0  0  0
    1.6671    0.1599   -0.7651 O   0  0  0  0  0  0  0  0  0  0  0  0
    0.7401   -0.9520    1.0551 C   0  0  0  0  0  0  0  0  0  0  0  0
    0.5476   -2.2233    1.6139 C   0  0  0  0  0  0  0  0  0  0  0  0
   -0.5490   -2.4613    2.4554 C   0  0  0  0  0  0  0  0  0  0  0  0
   -0.7405   -3.7631    3.0267 C   0  0  0  0  0  0  0  0  0  0  0  0
   -0.8798   -4.8216    3.4794 N   0  0  0  0  0  0  0  0  0  0  0  0
   -1.4603   -1.4358    2.7260 C   0  0  0  0  0  0  0  0  0  0  0  0
   -1.2693   -0.1760    2.1503 C   0  0  0  0  0  0  0  0  0  0  0  0
   -2.4329    1.1317    2.4680 S   0  0  0  0  0  6  0  0  0  0  0  0
   -1.6612    2.2116    3.0500 O   0  0  0  0  0  0  0  0  0  0  0  0
   -3.5477    0.5447    3.1867 O   0  0  0  0  0  0  0  0  0  0  0  0
   -3.0178    1.6476    0.8702 C   0  0  0  0  0  0  0  0  0  0  0  0
   -3.7065    0.5223    0.1139 C   0  0  0  0  0  0  0  0  0  0  0  0
   -4.1329    0.9736   -1.2595 C   0  0  0  0  0  0  0  0  0  0  0  0
   -5.4354    1.4391   -1.4821 C   0  0  0  0  0  0  0  0  0  0  0  0
   -5.8207    1.8776   -2.7497 C   0  0  0  0  0  0  0  0  0  0  0  0
   -4.9083    1.8592   -3.8028 C   0  0  0  0  0  0  0  0  0  0  0  0
   -3.6090    1.4028   -3.5901 C   0  0  0  0  0  0  0  0  0  0  0  0
   -3.2208    0.9626   -2.3241 C   0  0  0  0  0  0  0  0  0  0  0  0
   -0.1714    0.0756    1.3253 C   0  0  0  0  0  0  0  0  0  0  0  0
    4.5013   -0.7552   -1.6656 C   0  0  0  0  0  0  0  0  0  0  0  0
    3.6746   -0.1389   -2.6504 C   0  0  0  0  0  0  0  0  0  0  0  0
    3.0695    0.3233   -3.5279 N   0  0  0  0  0  0  0  0  0  0  0  0
  1  2  1  0
  2  3  1  0
  3  4  1  0
  4  5  1  0
  5  6  2  0
  6  7  1  0
  7  8  1  0
  8  9  2  0
  8 10  1  0
 10 11  2  0
 11 12  1  0
 12 13  1  0
 13 14  3  0
 12 15  2  0
 15 16  1  0
 16 17  1  0
 17 18  2  0
 17 19  2  0
 17 20  1  0
 20 21  1  0
 21 22  1  0
 22 23  2  0
 23 24  1  0
 24 25  2  0
 25 26  1  0
 26 27  2  0
 16 28  2  0
  6 29  1  0
 29 30  1  0
 30 31  3  0
 29  3  2  0
 28 10  1  0
 27 22  1  0
M  END
>  <energy>  (144) 
38.33

>  <full_id>  (144) 
MOL00004717-001834-03_1

>  <mol_id>  (144) 
MOL00004717-001834-03

>  <act_mol>  (144) 
0

>  <act_conf>  (144) 
0

$$$$
MOL00004388-000401-02
     RDKit          3D

 35 40  0  0  0  0  0  0  0  0999 V2000
   -7.6631   -3.2602   -3.5215 C   0  0  0  0  0  0  0  0  0  0  0  0
   -6.4429   -2.7309   -3.0012 O   0  0  0  0  0  0  0  0  0  0  0  0
   -6.6118   -1.8861   -1.9529 C   0  0  0  0  0  0  0  0  0  0  0  0
   -7.6830   -1.5712   -1.4584 O   0  0  0  0  0  0  0  0  0  0  0  0
   -5.2989   -1.3792   -1.4658 C   0  0  0  0  0  0  0  0  0  0  0  0
   -4.0872   -1.7401   -2.0686 C   0  0  0  0  0  0  0  0  0  0  0  0
   -2.8655   -1.2491   -1.5926 C   0  0  0  0  0  0  0  0  0  0  0  0
   -2.8985   -0.3861   -0.4923 C   0  0  0  0  0  0  0  0  0  0  0  0
   -1.8716    0.2394    0.1748 N   0  0  0  0  0  0  0  0  0  0  0  0
   -2.3581    1.0026    1.1981 C   0  0  0  0  0  0  0  0  0  0  0  0
   -3.7351    0.8732    1.1979 C   0  0  0  0  0  0  0  0  0  0  0  0
   -4.0874   -0.0038    0.1335 C   0  0  0  0  0  0  0  0  0  0  0  0
   -5.3055   -0.5082   -0.3625 C   0  0  0  0  0  0  0  0  0  0  0  0
   -4.6033    1.5856    2.1807 C   0  0  0  0  0  0  0  0  0  0  0  0
   -3.7869    2.0004    3.4181 C   0  0  0  0  0  0  0  0  0  0  0  0
   -2.4666    2.6908    3.0417 C   0  0  0  0  0  0  0  0  0  0  0  0
   -1.6078    1.8189    2.1259 C   0  0  0  0  0  0  0  0  0  0  0  0
   -0.3139    1.9058    2.2236 N   0  0  0  0  0  0  0  0  0  0  0  0
    0.4324    1.0669    1.3956 N   0  0  0  0  0  0  0  0  0  0  0  0
    1.6967    1.3695    1.3628 C   0  0  0  0  0  0  0  0  0  0  0  0
    2.3579    2.5432    2.0876 C   0  0  0  0  0  0  0  0  0  0  0  0
    3.5910    3.0645    1.3286 C   0  0  0  0  0  0  0  0  0  0  0  0
    4.6194    1.9587    1.0349 C   0  0  0  0  0  0  0  0  0  0  0  0
    3.9466    0.7644    0.4461 C   0  0  0  0  0  0  0  0  0  0  0  0
    2.5975    0.5203    0.6206 C   0  0  0  0  0  0  0  0  0  0  0  0
    2.2991   -0.6551   -0.0120 N   0  0  0  0  0  0  0  0  0  0  0  0
    3.4270   -1.1718   -0.6102 C   0  0  0  0  0  0  0  0  0  0  0  0
    3.5897   -2.3405   -1.3600 C   0  0  0  0  0  0  0  0  0  0  0  0
    4.8710   -2.6224   -1.8456 C   0  0  0  0  0  0  0  0  0  0  0  0
    5.9533   -1.7712   -1.5906 C   0  0  0  0  0  0  0  0  0  0  0  0
    7.2906   -2.1442   -2.1433 C   0  0  0  0  0  0  0  0  0  0  0  0
    8.4733   -1.2554   -1.8583 C   0  0  0  0  0  0  0  0  0  0  0  0
    7.4134   -3.1634   -2.8205 O   0  0  0  0  0  0  0  0  0  0  0  0
    5.7657   -0.6034   -0.8333 C   0  0  0  0  0  0  0  0  0  0  0  0
    4.4811   -0.2980   -0.3359 C   0  0  0  0  0  0  0  0  0  0  0  0
  1  2  1  0
  2  3  1  0
  3  4  2  0
  3  5  1  0
  5  6  2  0
  6  7  1  0
  7  8  2  0
  8  9  1  0
  9 10  1  0
 10 11  2  0
 11 12  1  0
 12 13  2  0
 11 14  1  0
 14 15  1  0
 15 16  1  0
 16 17  1  0
 17 18  2  0
 18 19  1  0
 19 20  2  0
 20 21  1  0
 21 22  1  0
 22 23  1  0
 23 24  1  0
 24 25  2  0
 25 26  1  0
 26 27  1  0
 27 28  2  0
 28 29  1  0
 29 30  2  0
 30 31  1  0
 31 32  1  0
 31 33  2  0
 30 34  1  0
 34 35  2  0
 13  5  1  0
 25 20  1  0
 35 27  1  0
 12  8  1  0
 35 24  1  0
 17 10  1  0
M  END
>  <energy>  (145) 
90.70

>  <full_id>  (145) 
MOL00004388-000401-02_1

>  <mol_id>  (145) 
MOL00004388-000401-02

>  <act_mol>  (145) 
0

>  <act_conf>  (145) 
0

$$$$
MOL00005686-001822-04
     RDKit          3D

 27 30  0  0  0  0  0  0  0  0999 V2000
    7.0680   -0.2434   -1.4096 C   0  0  0  0  0  0  0  0  0  0  0  0
    6.0951    0.6234   -0.8435 O   0  0  0  0  0  0  0  0  0  0  0  0
    4.7833    0.2242   -0.9049 C   0  0  0  0  0  0  0  0  0  0  0  0
    4.3215   -0.8699   -1.6418 C   0  0  0  0  0  0  0  0  0  0  0  0
    2.9619   -1.2246   -1.6422 C   0  0  0  0  0  0  0  0  0  0  0  0
    2.0485   -0.4732   -0.8807 C   0  0  0  0  0  0  0  0  0  0  0  0
    0.6462   -0.5531   -0.6453 C   0  0  0  0  0  0  0  0  0  0  0  0
    0.2866    0.4725    0.2160 C   0  0  0  0  0  0  0  0  0  0  0  0
   -0.9821    0.8863    0.7981 C   0  0  0  0  0  0  0  0  0  0  0  0
   -1.0268    1.8755    1.5203 O   0  0  0  0  0  0  0  0  0  0  0  0
   -2.0400    0.0771    0.4543 N   0  0  0  0  0  0  0  0  0  0  0  0
   -3.3491    0.2430    0.8609 C   0  0  0  0  0  0  0  0  0  0  0  0
   -3.8031    1.2218    1.6459 N   0  0  0  0  0  0  0  0  0  0  0  0
   -5.1169    0.9770    1.7681 N   0  0  0  0  0  0  0  0  0  0  0  0
   -5.5421   -0.1272    1.0879 C   0  0  0  0  0  0  0  0  0  0  0  0
   -6.7988   -0.7149    0.9553 C   0  0  0  0  0  0  0  0  0  0  0  0
   -7.8775   -0.1643    1.5815 O   0  0  0  0  0  0  0  0  0  0  0  0
   -6.9041   -1.8664    0.1711 C   0  0  0  0  0  0  0  0  0  0  0  0
   -5.7753   -2.4017   -0.4556 C   0  0  0  0  0  0  0  0  0  0  0  0
   -4.5266   -1.7916   -0.3055 C   0  0  0  0  0  0  0  0  0  0  0  0
   -3.4539   -2.3183   -0.9141 F   0  0  0  0  0  0  0  0  0  0  0  0
   -4.4024   -0.6350    0.4784 C   0  0  0  0  0  0  0  0  0  0  0  0
    1.4485    1.1599    0.5003 N   0  0  0  0  0  0  0  0  0  0  0  0
    2.5224    0.6156   -0.1589 C   0  0  0  0  0  0  0  0  0  0  0  0
    3.8687    1.0021   -0.1702 C   0  0  0  0  0  0  0  0  0  0  0  0
    4.2717    2.0752    0.5886 O   0  0  0  0  0  0  0  0  0  0  0  0
    4.4360    3.2240   -0.2424 C   0  0  0  0  0  0  0  0  0  0  0  0
  1  2  1  0
  2  3  1  0
  3  4  2  0
  4  5  1  0
  5  6  2  0
  6  7  1  0
  7  8  2  0
  8  9  1  0
  9 10  2  0
  9 11  1  0
 11 12  1  0
 12 13  2  0
 13 14  1  0
 14 15  1  0
 15 16  2  0
 16 17  1  0
 16 18  1  0
 18 19  2  0
 19 20  1  0
 20 21  1  0
 20 22  2  0
  8 23  1  0
 23 24  1  0
 24 25  2  0
 25 26  1  0
 26 27  1  0
 25  3  1  0
 24  6  1  0
 22 12  1  0
 22 15  1  0
M  END
>  <energy>  (146) 
-1.68

>  <full_id>  (146) 
MOL00005686-001822-04_1

>  <mol_id>  (146) 
MOL00005686-001822-04

>  <act_mol>  (146) 
0

>  <act_conf>  (146) 
0

$$$$
MOL00005077-000040-04
     RDKit          3D

 32 35  0  0  0  0  0  0  0  0999 V2000
   -3.3915   -1.7268    0.5685 C   0  0  0  0  0  0  0  0  0  0  0  0
   -2.8943   -1.8833   -0.8188 C   0  0  0  0  0  0  0  0  0  0  0  0
   -2.6871   -3.1038   -1.3280 N   0  0  0  0  0  0  0  0  0  0  0  0
   -2.2477   -2.8999   -2.6200 O   0  0  0  0  0  0  0  0  0  0  0  0
   -2.1791   -1.5664   -2.8762 C   0  0  0  0  0  0  0  0  0  0  0  0
   -1.7629   -1.2017   -4.2443 C   0  0  0  0  0  0  0  0  0  0  0  0
   -2.5574   -0.8629   -1.7505 C   0  0  0  0  0  0  0  0  0  0  0  0
   -2.6425    0.5701   -1.5583 C   0  0  0  0  0  0  0  0  0  0  0  0
   -3.4562    1.0715   -0.7903 O   0  0  0  0  0  0  0  0  0  0  0  0
   -1.7156    1.3071   -2.2638 N   0  0  0  0  0  0  0  0  0  0  0  0
   -1.5305    2.7160   -1.9935 C   0  0  0  0  0  0  0  0  0  0  0  0
   -0.5259    2.9087   -0.8862 C   0  0  0  0  0  0  0  0  0  0  0  0
   -0.9578    3.0216    0.4448 C   0  0  0  0  0  0  0  0  0  0  0  0
   -0.0329    3.1019    1.4851 C   0  0  0  0  0  0  0  0  0  0  0  0
    1.3326    3.0538    1.1932 C   0  0  0  0  0  0  0  0  0  0  0  0
    2.5052    3.0388    2.5241 S   0  0  0  0  0  6  0  0  0  0  0  0
    2.3263    4.2884    3.2361 O   0  0  0  0  0  0  0  0  0  0  0  0
    3.8091    2.6702    2.0140 O   0  0  0  0  0  0  0  0  0  0  0  0
    1.9559    1.8462    3.5404 N   0  0  0  0  0  0  0  0  0  0  0  0
    2.1741    0.5237    3.1736 C   0  0  0  0  0  0  0  0  0  0  0  0
    2.3079   -0.2914    4.2238 N   0  0  0  0  0  0  0  0  0  0  0  0
    2.3208   -1.6049    3.9406 C   0  0  0  0  0  0  0  0  0  0  0  0
    2.1589   -2.1064    2.6713 C   0  0  0  0  0  0  0  0  0  0  0  0
    1.9801   -1.1695    1.6729 C   0  0  0  0  0  0  0  0  0  0  0  0
    1.7616   -1.5738    0.2793 C   0  0  0  0  0  0  0  0  0  0  0  0
    1.0280   -2.6395   -0.2133 C   0  0  0  0  0  0  0  0  0  0  0  0
    1.0852   -2.7401   -1.6343 C   0  0  0  0  0  0  0  0  0  0  0  0
    1.8516   -1.7426   -2.1901 C   0  0  0  0  0  0  0  0  0  0  0  0
    2.4937   -0.6948   -1.0040 S   0  0  0  0  0  0  0  0  0  0  0  0
    1.9598    0.1560    1.9129 N   0  0  0  0  0  0  0  0  0  0  0  0
    1.7805    2.9641   -0.1261 C   0  0  0  0  0  0  0  0  0  0  0  0
    0.8501    2.8911   -1.1632 C   0  0  0  0  0  0  0  0  0  0  0  0
  1  2  1  0
  2  3  2  0
  3  4  1  0
  4  5  1  0
  5  6  1  0
  5  7  2  0
  7  8  1  0
  8  9  2  0
  8 10  1  0
 10 11  1  0
 11 12  1  0
 12 13  2  0
 13 14  1  0
 14 15  2  0
 15 16  1  0
 16 17  2  0
 16 18  2  0
 16 19  1  0
 19 20  1  0
 20 21  2  0
 21 22  1  0
 22 23  2  0
 23 24  1  0
 24 25  1  0
 25 26  2  0
 26 27  1  0
 27 28  2  0
 28 29  1  0
 24 30  2  0
 15 31  1  0
 31 32  2  0
  7  2  1  0
 32 12  1  0
 30 20  1  0
 29 25  1  0
M  END
>  <energy>  (147) 
-166.95

>  <full_id>  (147) 
MOL00005077-000040-04_1

>  <mol_id>  (147) 
MOL00005077-000040-04

>  <act_mol>  (147) 
0

>  <act_conf>  (147) 
0

$$$$
MOL00006079-000346-02
     RDKit          3D

 26 27  0  0  0  0  0  0  0  0999 V2000
   -5.5262   -3.5300   -0.5988 C   0  0  0  0  0  0  0  0  0  0  0  0
   -4.8047   -2.2242   -0.7671 C   0  0  0  0  0  0  0  0  0  0  0  0
   -4.0478   -2.0255   -1.7942 N   0  0  0  0  0  0  0  0  0  0  0  0
   -3.4072   -0.8115   -1.9079 C   0  0  0  0  0  0  0  0  0  0  0  0
   -2.5346   -0.7174   -3.1341 C   0  0  0  0  0  0  0  0  0  0  0  0
   -3.5299    0.1842   -1.0081 C   0  0  0  0  0  0  0  0  0  0  0  0
   -2.9119    1.5490   -1.0605 C   0  0  0  0  0  0  0  0  0  0  0  0
   -1.7121    1.5865   -0.1300 C   0  0  0  0  0  0  0  0  0  0  0  0
   -0.5861    1.2466   -0.4893 O   0  0  0  0  0  0  0  0  0  0  0  0
   -1.9942    2.0237    1.1478 N   0  0  0  0  0  0  0  0  0  0  0  0
   -1.0009    1.9531    2.2074 C   0  0  0  0  0  0  0  0  0  0  0  0
    0.1693    2.9094    1.9975 C   0  0  0  0  0  0  0  0  0  0  0  0
    1.4935    2.1772    2.0864 C   0  0  0  0  0  0  0  0  0  0  0  0
    2.2287    2.3424    3.0552 O   0  0  0  0  0  0  0  0  0  0  0  0
    1.7236    1.3546    1.0011 N   0  0  0  0  0  0  0  0  0  0  0  0
    2.8447    0.5388    0.7544 C   0  0  0  0  0  0  0  0  0  0  0  0
    3.9630    0.4737    1.5848 C   0  0  0  0  0  0  0  0  0  0  0  0
    5.0379   -0.3636    1.2631 C   0  0  0  0  0  0  0  0  0  0  0  0
    5.0093   -1.1550    0.1080 C   0  0  0  0  0  0  0  0  0  0  0  0
    6.1797   -2.0336   -0.2483 C   0  0  0  0  0  0  0  0  0  0  0  0
    7.1793   -1.2985   -1.0142 N   0  0  0  0  0  0  0  0  0  0  0  0
    3.8901   -1.0820   -0.7287 C   0  0  0  0  0  0  0  0  0  0  0  0
    2.8177   -0.2449   -0.4053 C   0  0  0  0  0  0  0  0  0  0  0  0
   -4.3893   -0.0802    0.1727 C   0  0  0  0  0  0  0  0  0  0  0  0
   -4.5269    0.7466    1.0709 O   0  0  0  0  0  0  0  0  0  0  0  0
   -5.0011   -1.2934    0.2058 N   0  0  0  0  0  0  0  0  0  0  0  0
  1  2  1  0
  2  3  2  0
  3  4  1  0
  4  5  1  0
  4  6  2  0
  6  7  1  0
  7  8  1  0
  8  9  2  0
  8 10  1  0
 10 11  1  0
 11 12  1  0
 12 13  1  0
 13 14  2  0
 13 15  1  0
 15 16  1  0
 16 17  2  0
 17 18  1  0
 18 19  2  0
 19 20  1  0
 20 21  1  0
 19 22  1  0
 22 23  2  0
  6 24  1  0
 24 25  2  0
 24 26  1  0
 26  2  1  0
 23 16  1  0
M  END
>  <energy>  (148) 
-89.26

>  <full_id>  (148) 
MOL00006079-000346-02_1

>  <mol_id>  (148) 
MOL00006079-000346-02

>  <act_mol>  (148) 
0

>  <act_conf>  (148) 
0

$$$$
MOL00006091-001261-04
     RDKit          3D

 27 29  0  0  0  0  0  0  0  0999 V2000
   -4.9918   -3.0567    3.4959 C   0  0  0  0  0  0  0  0  0  0  0  0
   -4.8289   -2.9889    1.9859 C   0  0  0  0  0  0  0  0  0  0  0  0
   -3.9083   -1.8417    1.5732 C   0  0  0  0  0  0  0  0  0  0  0  0
   -3.7464   -1.7784    0.0528 C   0  0  0  0  0  0  0  0  0  0  0  0
   -2.8721   -0.6770   -0.3541 N   0  0  0  0  0  0  0  0  0  0  0  0
   -1.5094   -0.9011   -0.4481 C   0  0  0  0  0  0  0  0  0  0  0  0
   -0.6372    0.0631   -0.7808 C   0  0  0  0  0  0  0  0  0  0  0  0
    0.8003   -0.3410   -0.7454 C   0  0  0  0  0  0  0  0  0  0  0  0
    1.1750   -1.3139   -1.3879 O   0  0  0  0  0  0  0  0  0  0  0  0
    1.5377    0.4529    0.0927 N   0  0  0  0  0  0  0  0  0  0  0  0
    2.8746    0.3220    0.3228 C   0  0  0  0  0  0  0  0  0  0  0  0
    3.5007    1.1402    1.1733 N   0  0  0  0  0  0  0  0  0  0  0  0
    4.7615    0.6793    1.1107 N   0  0  0  0  0  0  0  0  0  0  0  0
    4.8656   -0.3612    0.2355 C   0  0  0  0  0  0  0  0  0  0  0  0
    6.1534   -1.0477   -0.0418 C   0  0  0  0  0  0  0  0  0  0  0  0
    6.8393   -1.3779    1.2140 N   0  0  0  0  0  0  0  0  0  0  0  0
    8.1365   -1.9869    0.9379 C   0  0  0  0  0  0  0  0  0  0  0  0
    3.6769   -0.6037   -0.2723 N   0  0  0  0  0  0  0  0  0  0  0  0
   -1.1373    1.4073   -1.1072 C   0  0  0  0  0  0  0  0  0  0  0  0
   -0.3047    2.4324   -1.5795 C   0  0  0  0  0  0  0  0  0  0  0  0
   -0.8219    3.7011   -1.8645 C   0  0  0  0  0  0  0  0  0  0  0  0
   -2.1815    3.9738   -1.6873 C   0  0  0  0  0  0  0  0  0  0  0  0
   -2.7403    5.3239   -2.0268 C   0  0  0  0  0  0  0  0  0  0  0  0
   -3.0262    2.9455   -1.2569 C   0  0  0  0  0  0  0  0  0  0  0  0
   -2.5089    1.6725   -0.9732 C   0  0  0  0  0  0  0  0  0  0  0  0
   -3.4384    0.5860   -0.5547 C   0  0  0  0  0  0  0  0  0  0  0  0
   -4.6334    0.8292   -0.4076 O   0  0  0  0  0  0  0  0  0  0  0  0
  1  2  1  0
  2  3  1  0
  3  4  1  0
  4  5  1  0
  5  6  1  0
  6  7  2  0
  7  8  1  0
  8  9  2  0
  8 10  1  0
 10 11  1  0
 11 12  2  0
 12 13  1  0
 13 14  1  0
 14 15  1  0
 15 16  1  0
 16 17  1  0
 14 18  2  0
  7 19  1  0
 19 20  2  0
 20 21  1  0
 21 22  2  0
 22 23  1  0
 22 24  1  0
 24 25  2  0
 25 26  1  0
 26 27  2  0
 26  5  1  0
 18 11  1  0
 25 19  1  0
M  END
>  <energy>  (149) 
-19.78

>  <full_id>  (149) 
MOL00006091-001261-04_1

>  <mol_id>  (149) 
MOL00006091-001261-04

>  <act_mol>  (149) 
0

>  <act_conf>  (149) 
0

$$$$
MOL00006059-001649-03
     RDKit          3D

 26 27  0  0  0  0  0  0  0  0999 V2000
   -6.3754    2.7096    1.7438 C   0  0  0  0  0  0  0  0  0  0  0  0
   -5.6357    1.7879    0.7883 C   0  0  0  0  0  0  0  0  0  0  0  0
   -4.3929    1.1847    1.4427 C   0  0  0  0  0  0  0  0  0  0  0  0
   -3.6794    0.2960    0.5239 N   0  0  0  0  0  0  0  0  0  0  0  0
   -4.0445   -1.1220    0.5449 C   0  0  0  0  0  0  0  0  0  0  0  0
   -3.2654   -1.8916    1.6117 C   0  0  0  0  0  0  0  0  0  0  0  0
   -3.6212   -3.3691    1.6013 C   0  0  0  0  0  0  0  0  0  0  0  0
   -2.6992    0.8483   -0.2992 C   0  0  0  0  0  0  0  0  0  0  0  0
   -2.4474    2.0571   -0.2947 O   0  0  0  0  0  0  0  0  0  0  0  0
   -1.9476   -0.1005   -1.2459 C   0  0  0  0  0  0  0  0  0  0  0  0
   -0.8241    0.5295   -1.8649 O   0  0  0  0  0  0  0  0  0  0  0  0
    0.2396    0.6992   -1.0295 C   0  0  0  0  0  0  0  0  0  0  0  0
    0.3092    0.2733    0.1183 O   0  0  0  0  0  0  0  0  0  0  0  0
    1.3076    1.5468   -1.7065 C   0  0  0  0  0  0  0  0  0  0  0  0
    2.5856    1.3879   -1.0311 N   0  0  0  0  0  0  0  0  0  0  0  0
    3.4371    0.3695   -1.3899 C   0  0  0  0  0  0  0  0  0  0  0  0
    3.2435   -0.3328   -2.3775 O   0  0  0  0  0  0  0  0  0  0  0  0
    4.5666    0.1694   -0.5116 C   0  0  0  0  0  0  0  0  0  0  0  0
    5.0236    0.8628    0.6016 C   0  0  0  0  0  0  0  0  0  0  0  0
    6.1963    0.2166    1.0802 C   0  0  0  0  0  0  0  0  0  0  0  0
    7.0978    0.4200    2.1367 C   0  0  0  0  0  0  0  0  0  0  0  0
    8.1596   -0.4779    2.2594 C   0  0  0  0  0  0  0  0  0  0  0  0
    8.2748   -1.5164    1.3434 C   0  0  0  0  0  0  0  0  0  0  0  0
    7.4354   -1.7543    0.3097 N   0  0  0  0  0  0  0  0  0  0  0  0
    6.4317   -0.8615    0.2377 C   0  0  0  0  0  0  0  0  0  0  0  0
    5.4509   -0.8723   -0.7105 N   0  0  0  0  0  0  0  0  0  0  0  0
  1  2  1  0
  2  3  1  0
  3  4  1  0
  4  5  1  0
  5  6  1  0
  6  7  1  0
  4  8  1  0
  8  9  2  0
  8 10  1  0
 10 11  1  0
 11 12  1  0
 12 13  2  0
 12 14  1  0
 14 15  1  0
 15 16  1  0
 16 17  2  0
 16 18  1  0
 18 19  2  0
 19 20  1  0
 20 21  2  0
 21 22  1  0
 22 23  2  0
 23 24  1  0
 24 25  2  0
 25 26  1  0
 26 18  1  0
 25 20  1  0
M  END
>  <energy>  (150) 
-9.64

>  <full_id>  (150) 
MOL00006059-001649-03_1

>  <mol_id>  (150) 
MOL00006059-001649-03

>  <act_mol>  (150) 
0

>  <act_conf>  (150) 
0

$$$$
MOL00005457-000001-03
     RDKit          3D

 33 37  0  0  0  0  0  0  0  0999 V2000
    6.4904   -2.0206    0.4168 O   0  0  0  0  0  0  0  0  0  0  0  0
    5.3554   -1.5575    0.3262 C   0  0  0  0  0  0  0  0  0  0  0  0
    5.1424   -0.3183   -0.2411 N   0  0  0  0  0  0  0  0  0  0  0  0
    6.2291    0.3919   -0.8713 C   0  0  0  0  0  0  0  0  0  0  0  0
    5.7594    1.7517   -1.2288 C   0  0  0  0  0  0  0  0  0  0  0  0
    6.1992    3.0209   -0.9143 C   0  0  0  0  0  0  0  0  0  0  0  0
    5.3235    3.9210   -1.5680 C   0  0  0  0  0  0  0  0  0  0  0  0
    4.4052    3.1467   -2.2365 C   0  0  0  0  0  0  0  0  0  0  0  0
    4.6575    1.8279   -2.0344 O   0  0  0  0  0  0  0  0  0  0  0  0
    4.1495   -2.2428    0.7716 C   0  0  0  0  0  0  0  0  0  0  0  0
    2.8591   -1.7687    0.9284 C   0  0  0  0  0  0  0  0  0  0  0  0
    1.9363   -2.7720    1.3853 C   0  0  0  0  0  0  0  0  0  0  0  0
    0.5538   -2.7446    1.6730 C   0  0  0  0  0  0  0  0  0  0  0  0
   -0.2117   -1.5721    1.4957 N   0  0  0  0  0  0  0  0  0  0  0  0
   -0.5749   -1.4169    0.0784 C   0  0  0  0  0  0  0  0  0  0  0  0
   -1.2481   -0.0577   -0.1233 C   0  0  0  0  0  0  0  0  0  0  0  0
   -2.4706    0.1114    0.7975 C   0  0  0  0  0  0  0  0  0  0  0  0
   -3.0933    1.5187    0.6958 C   0  0  0  0  0  0  0  0  0  0  0  0
   -3.7867    1.7871   -0.6250 C   0  0  0  0  0  0  0  0  0  0  0  0
   -3.0590    2.4428   -1.6361 C   0  0  0  0  0  0  0  0  0  0  0  0
   -3.6326    2.7122   -2.8768 C   0  0  0  0  0  0  0  0  0  0  0  0
   -4.9460    2.3365   -3.1255 C   0  0  0  0  0  0  0  0  0  0  0  0
   -5.6847    1.6931   -2.1326 C   0  0  0  0  0  0  0  0  0  0  0  0
   -5.1241    1.3994   -0.8756 C   0  0  0  0  0  0  0  0  0  0  0  0
   -5.9752    0.7537    0.1960 C   0  0  0  0  0  0  0  0  0  0  0  0
   -7.1351    0.1265   -0.3404 O   0  0  0  0  0  0  0  0  0  0  0  0
   -2.0632   -0.1732    2.2547 C   0  0  0  0  0  0  0  0  0  0  0  0
   -1.3797   -1.5349    2.3876 C   0  0  0  0  0  0  0  0  0  0  0  0
   -0.0209   -3.8779    2.1424 N   0  0  0  0  0  0  0  0  0  0  0  0
    0.7342   -4.9785    2.2878 C   0  0  0  0  0  0  0  0  0  0  0  0
    2.0359   -5.1169    2.0269 N   0  0  0  0  0  0  0  0  0  0  0  0
    2.5867   -3.9753    1.5853 C   0  0  0  0  0  0  0  0  0  0  0  0
    4.2439   -3.8997    1.2088 S   0  0  0  0  0  0  0  0  0  0  0  0
  1  2  2  0
  2  3  1  0
  3  4  1  0
  4  5  1  0
  5  6  2  0
  6  7  1  0
  7  8  2  0
  8  9  1  0
  2 10  1  0
 10 11  2  0
 11 12  1  0
 12 13  2  0
 13 14  1  0
 14 15  1  0
 15 16  1  0
 16 17  1  0
 17 18  1  0
 18 19  1  0
 19 20  2  0
 20 21  1  0
 21 22  2  0
 22 23  1  0
 23 24  2  0
 24 25  1  0
 25 26  1  0
 17 27  1  0
 27 28  1  0
 13 29  1  0
 29 30  2  0
 30 31  1  0
 31 32  2  0
 32 33  1  0
  9  5  1  0
 33 10  1  0
 32 12  1  0
 28 14  1  0
 24 19  1  0
M  END
>  <energy>  (151) 
-23.54

>  <full_id>  (151) 
MOL00005457-000001-03_1

>  <mol_id>  (151) 
MOL00005457-000001-03

>  <act_mol>  (151) 
0

>  <act_conf>  (151) 
0

$$$$
MOL00006128-001953-03
     RDKit          3D

 28 31  0  0  0  0  0  0  0  0999 V2000
    2.4395   -0.9831    1.3445 O   0  0  0  0  0  0  0  0  0  0  0  0
    2.8782   -0.1766    0.5294 C   0  0  0  0  0  0  0  0  0  0  0  0
    2.1904    0.9204    0.0437 N   0  0  0  0  0  0  0  0  0  0  0  0
    0.8594    1.1196    0.3674 N   0  0  0  0  0  0  0  0  0  0  0  0
   -0.1486    0.5611   -0.4147 C   0  0  0  0  0  0  0  0  0  0  0  0
   -1.4727    0.6885   -0.1856 C   0  0  0  0  0  0  0  0  0  0  0  0
   -2.4268    0.0012   -1.1034 C   0  0  0  0  0  0  0  0  0  0  0  0
   -2.0217   -0.4183   -2.1901 O   0  0  0  0  0  0  0  0  0  0  0  0
   -3.8807   -0.1853   -0.6643 C   0  0  0  0  0  0  0  0  0  0  0  0
   -3.9803   -1.1656    0.5164 C   0  0  0  0  0  0  0  0  0  0  0  0
   -4.8972   -2.2970    0.0616 C   0  0  0  0  0  0  0  0  0  0  0  0
   -4.7871   -2.2841   -1.4507 C   0  0  0  0  0  0  0  0  0  0  0  0
   -4.7566   -0.7980   -1.7682 C   0  0  0  0  0  0  0  0  0  0  0  0
   -1.8323    1.5012    0.9988 C   0  0  0  0  0  0  0  0  0  0  0  0
   -2.9999    1.8243    1.4822 N   0  0  0  0  0  0  0  0  0  0  0  0
   -2.7452    2.6050    2.6052 N   0  0  0  0  0  0  0  0  0  0  0  0
   -1.4010    2.8235    2.8870 C   0  0  0  0  0  0  0  0  0  0  0  0
   -0.8868    3.4636    3.7788 O   0  0  0  0  0  0  0  0  0  0  0  0
   -0.7497    2.0858    1.8114 C   0  0  0  0  0  0  0  0  0  0  0  0
    0.5217    1.8804    1.4742 C   0  0  0  0  0  0  0  0  0  0  0  0
    4.2272   -0.2852   -0.0465 C   0  0  0  0  0  0  0  0  0  0  0  0
    5.2029   -1.2727    0.2416 C   0  0  0  0  0  0  0  0  0  0  0  0
    6.2977   -0.9596   -0.5363 C   0  0  0  0  0  0  0  0  0  0  0  0
    7.5773   -1.5704   -0.6856 C   0  0  0  0  0  0  0  0  0  0  0  0
    8.4852   -1.1939   -1.4083 O   0  0  0  0  0  0  0  0  0  0  0  0
    7.6980   -2.6667    0.0853 O   0  0  0  0  0  0  0  0  0  0  0  0
    5.9335    0.1595   -1.2301 N   0  0  0  0  0  0  0  0  0  0  0  0
    4.6888    0.5958   -0.9593 N   0  0  0  0  0  0  0  0  0  0  0  0
  1  2  2  0
  2  3  1  0
  3  4  1  0
  4  5  1  0
  5  6  2  0
  6  7  1  0
  7  8  2  0
  9  7  1  0
  9 10  1  0
 10 11  1  0
 11 12  1  0
 12 13  1  0
  6 14  1  0
 14 15  2  0
 15 16  1  0
 16 17  1  0
 17 18  2  0
 17 19  1  0
 19 20  2  0
  2 21  1  0
 21 22  1  0
 22 23  2  0
 23 24  1  0
 24 25  2  0
 24 26  1  0
 23 27  1  0
 27 28  1  0
 20  4  1  0
 28 21  2  0
 13  9  1  0
 19 14  1  0
M  END
>  <energy>  (152) 
37.79

>  <full_id>  (152) 
MOL00006128-001953-03_1

>  <mol_id>  (152) 
MOL00006128-001953-03

>  <act_mol>  (152) 
0

>  <act_conf>  (152) 
0

$$$$
MOL00005994-000036-03
     RDKit          3D

 27 30  0  0  0  0  0  0  0  0999 V2000
    8.2746    2.0789    2.2409 C   0  0  0  0  0  0  0  0  0  0  0  0
    7.2363    1.5341    1.3039 C   0  0  0  0  0  0  0  0  0  0  0  0
    7.4526    1.5584   -0.0783 C   0  0  0  0  0  0  0  0  0  0  0  0
    6.5166    1.0299   -0.9744 C   0  0  0  0  0  0  0  0  0  0  0  0
    5.3563    0.4640   -0.4374 C   0  0  0  0  0  0  0  0  0  0  0  0
    4.2828   -0.1227   -1.0612 N   0  0  0  0  0  0  0  0  0  0  0  0
    3.3473   -0.5554   -0.1449 C   0  0  0  0  0  0  0  0  0  0  0  0
    2.1289   -1.2037   -0.5757 C   0  0  0  0  0  0  0  0  0  0  0  0
    1.8875   -1.4122   -1.7611 O   0  0  0  0  0  0  0  0  0  0  0  0
    1.2613   -1.5570    0.4314 N   0  0  0  0  0  0  0  0  0  0  0  0
   -0.0333   -2.1449    0.1593 C   0  0  0  0  0  0  0  0  0  0  0  0
   -1.0920   -1.0937   -0.2134 C   0  0  1  0  0  0  0  0  0  0  0  0
   -2.3882   -1.7875   -0.6573 C   0  0  0  0  0  0  0  0  0  0  0  0
   -3.4871   -0.7819   -0.9959 C   0  0  0  0  0  0  0  0  0  0  0  0
   -3.7668    0.1679    0.1774 C   0  0  2  0  0  0  0  0  0  0  0  0
   -4.7304    1.1923   -0.1975 N   0  0  0  0  0  0  0  0  0  0  0  0
   -6.0511    0.8017   -0.3309 C   0  0  0  0  0  0  0  0  0  0  0  0
   -6.7568    1.4685   -1.2544 N   0  0  0  0  0  0  0  0  0  0  0  0
   -8.0483    1.1199   -1.4056 C   0  0  0  0  0  0  0  0  0  0  0  0
   -8.6571    0.1304   -0.6763 C   0  0  0  0  0  0  0  0  0  0  0  0
   -7.8501   -0.4974    0.2382 C   0  0  0  0  0  0  0  0  0  0  0  0
   -6.5545   -0.1848    0.4250 N   0  0  0  0  0  0  0  0  0  0  0  0
   -2.4710    0.8689    0.6114 C   0  0  0  0  0  0  0  0  0  0  0  0
   -1.3702   -0.1331    0.9539 C   0  0  0  0  0  0  0  0  0  0  0  0
    3.8520   -0.2348    1.1045 C   0  0  0  0  0  0  0  0  0  0  0  0
    5.1106    0.4080    0.9310 C   0  0  0  0  0  0  0  0  0  0  0  0
    6.0672    0.9450    1.8153 C   0  0  0  0  0  0  0  0  0  0  0  0
  1  2  1  0
  2  3  2  0
  3  4  1  0
  4  5  2  0
  5  6  1  0
  6  7  1  0
  7  8  1  0
  8  9  2  0
  8 10  1  0
 10 11  1  0
 12 11  1  1
 12 13  1  0
 13 14  1  0
 14 15  1  0
 15 16  1  6
 16 17  1  0
 17 18  2  0
 18 19  1  0
 19 20  2  0
 20 21  1  0
 21 22  2  0
 15 23  1  0
 23 24  1  0
  7 25  2  0
 25 26  1  0
 26 27  2  0
 27  2  1  0
 26  5  1  0
 24 12  1  0
 22 17  1  0
M  END
>  <energy>  (153) 
-101.99

>  <full_id>  (153) 
MOL00005994-000036-03_1

>  <mol_id>  (153) 
MOL00005994-000036-03

>  <act_mol>  (153) 
0

>  <act_conf>  (153) 
0

$$$$
MOL00006116-000126-02
     RDKit          3D

 26 28  0  0  0  0  0  0  0  0999 V2000
   -2.6527    1.9766    5.0637 C   0  0  0  0  0  0  0  0  0  0  0  0
   -2.8286    0.4630    5.1921 C   0  0  1  0  0  0  0  0  0  0  0  0
   -3.7466    0.1948    6.3065 N   0  0  0  0  0  0  0  0  0  0  0  0
   -3.3829   -0.1733    3.9001 C   0  0  0  0  0  0  0  0  0  0  0  0
   -2.4221   -0.1210    2.7345 C   0  0  0  0  0  0  0  0  0  0  0  0
   -2.6240    0.7742    1.6830 C   0  0  0  0  0  0  0  0  0  0  0  0
   -1.7295    0.8273    0.6065 C   0  0  0  0  0  0  0  0  0  0  0  0
   -0.6121   -0.0205    0.5323 C   0  0  0  0  0  0  0  0  0  0  0  0
    0.3181    0.0597   -0.5271 N   0  0  0  0  0  0  0  0  0  0  0  0
    0.4125    0.9901   -1.5397 C   0  0  0  0  0  0  0  0  0  0  0  0
    1.2009    0.9558   -2.6317 C   0  0  0  0  0  0  0  0  0  0  0  0
    1.1330    2.0830   -3.5721 C   0  0  0  0  0  0  0  0  0  0  0  0
    0.4087    3.0601   -3.4235 O   0  0  0  0  0  0  0  0  0  0  0  0
    1.9486    1.9606   -4.6588 N   0  0  0  0  0  0  0  0  0  0  0  0
    2.8619    0.9730   -4.9219 C   0  0  0  0  0  0  0  0  0  0  0  0
    3.7131    1.1204   -6.3622 S   0  0  0  0  0  0  0  0  0  0  0  0
    2.9831   -0.0462   -3.9746 N   0  0  0  0  0  0  0  0  0  0  0  0
    3.9429   -1.1313   -4.1813 C   0  0  0  0  0  0  0  0  0  0  0  0
    5.4373   -0.8910   -4.1614 C   0  0  0  0  0  0  0  0  0  0  0  0
    4.8035   -1.6757   -3.0611 C   0  0  0  0  0  0  0  0  0  0  0  0
    2.1076   -0.1878   -2.8912 C   0  0  0  0  0  0  0  0  0  0  0  0
    2.0476   -1.1960   -2.1837 O   0  0  0  0  0  0  0  0  0  0  0  0
   -0.4056   -0.9109    1.6091 C   0  0  0  0  0  0  0  0  0  0  0  0
    0.7319   -1.7856    1.6508 C   0  0  0  0  0  0  0  0  0  0  0  0
    1.6471   -2.4981    1.6998 N   0  0  0  0  0  0  0  0  0  0  0  0
   -1.3057   -0.9618    2.6893 C   0  0  0  0  0  0  0  0  0  0  0  0
  2  1  1  6
  2  3  1  0
  2  4  1  0
  4  5  1  0
  5  6  2  0
  6  7  1  0
  7  8  2  0
  8  9  1  0
  9 10  1  0
 10 11  2  0
 11 12  1  0
 12 13  2  0
 12 14  1  0
 14 15  1  0
 15 16  2  0
 15 17  1  0
 18 17  1  0
 18 19  1  0
 19 20  1  0
 17 21  1  0
 21 22  2  0
  8 23  1  0
 23 24  1  0
 24 25  3  0
 23 26  2  0
 26  5  1  0
 21 11  1  0
 20 18  1  0
M  END
>  <energy>  (154) 
8.40

>  <full_id>  (154) 
MOL00006116-000126-02_1

>  <mol_id>  (154) 
MOL00006116-000126-02

>  <act_mol>  (154) 
0

>  <act_conf>  (154) 
0

$$$$
MOL00005654-000714-03
     RDKit          3D

 29 32  0  0  0  0  0  0  0  0999 V2000
    2.5553   -1.6776    1.8431 C   0  0  0  0  0  0  0  0  0  0  0  0
    1.9849   -1.3318    0.4945 C   0  0  0  0  0  0  0  0  0  0  0  0
    0.5894   -1.1618    0.3796 C   0  0  0  0  0  0  0  0  0  0  0  0
   -0.0072   -0.8443   -0.8417 C   0  0  0  0  0  0  0  0  0  0  0  0
   -1.3882   -0.6634   -1.0177 N   0  0  0  0  0  0  0  0  0  0  0  0
   -2.4022   -0.7503   -0.0838 C   0  0  0  0  0  0  0  0  0  0  0  0
   -2.2822   -1.0136    1.1077 O   0  0  0  0  0  0  0  0  0  0  0  0
   -3.7219   -0.4796   -0.6936 C   0  0  0  0  0  0  0  0  0  0  0  0
   -3.8466   -0.2084   -2.0156 N   0  0  0  0  0  0  0  0  0  0  0  0
   -5.1696   -0.0311   -2.1988 N   0  0  0  0  0  0  0  0  0  0  0  0
   -5.8899   -0.1767   -1.0565 C   0  0  0  0  0  0  0  0  0  0  0  0
   -4.9902   -0.4596   -0.0571 C   0  0  0  0  0  0  0  0  0  0  0  0
   -5.3959   -0.7010    1.3532 C   0  0  0  0  0  0  0  0  0  0  0  0
   -6.8470   -0.1993    1.6121 C   0  0  2  0  0  0  0  0  0  0  0  0
   -7.3220   -0.7247    2.9780 C   0  0  0  0  0  0  0  0  0  0  0  0
   -8.6013   -0.1633    3.3997 N   0  0  0  0  0  0  0  0  0  0  0  0
   -7.7988   -0.6067    0.4502 C   0  0  0  0  0  0  0  0  0  0  0  0
   -7.3555   -0.0276   -0.9105 C   0  0  0  0  0  0  0  0  0  0  0  0
    0.8032   -0.6950   -1.9674 C   0  0  0  0  0  0  0  0  0  0  0  0
    2.1865   -0.8571   -1.8706 C   0  0  0  0  0  0  0  0  0  0  0  0
    2.8002   -1.1656   -0.6438 C   0  0  0  0  0  0  0  0  0  0  0  0
    4.3104   -1.3481   -0.6118 C   0  0  0  0  0  0  0  0  0  0  0  0
    5.0483   -0.2245   -1.2172 N   0  0  0  0  0  0  0  0  0  0  0  0
    6.4729   -0.5649   -1.4173 C   0  0  0  0  0  0  0  0  0  0  0  0
    7.3222   -0.6075   -0.1245 C   0  0  0  0  0  0  0  0  0  0  0  0
    7.2275    0.6448    0.6451 N   0  0  0  0  0  0  0  0  0  0  0  0
    7.9762    0.5528    1.8948 C   0  0  0  0  0  0  0  0  0  0  0  0
    5.8164    0.9888    0.8965 C   0  0  0  0  0  0  0  0  0  0  0  0
    4.9727    1.0082   -0.4011 C   0  0  0  0  0  0  0  0  0  0  0  0
  1  2  1  0
  2  3  2  0
  3  4  1  0
  4  5  1  0
  5  6  1  0
  6  7  2  0
  6  8  1  0
  8  9  2  0
  9 10  1  0
 10 11  1  0
 11 12  2  0
 12 13  1  0
 13 14  1  0
 14 15  1  1
 15 16  1  0
 14 17  1  0
 17 18  1  0
  4 19  2  0
 19 20  1  0
 20 21  2  0
 21 22  1  0
 22 23  1  0
 23 24  1  0
 24 25  1  0
 25 26  1  0
 26 27  1  0
 26 28  1  0
 28 29  1  0
 21  2  1  0
 29 23  1  0
 12  8  1  0
 18 11  1  0
M  END
>  <energy>  (155) 
123.67

>  <full_id>  (155) 
MOL00005654-000714-03_1

>  <mol_id>  (155) 
MOL00005654-000714-03

>  <act_mol>  (155) 
0

>  <act_conf>  (155) 
0

$$$$
MOL00006248-000346-02
     RDKit          3D

 31 34  0  0  0  0  0  0  0  0999 V2000
    1.2338    1.0821   -1.7898 C   0  0  0  0  0  0  0  0  0  0  0  0
    1.6724    0.3948   -0.5699 N   0  0  0  0  0  0  0  0  0  0  0  0
    0.7654   -0.3425    0.1994 C   0  0  0  0  0  0  0  0  0  0  0  0
    1.0692   -1.3595    0.8364 O   0  0  0  0  0  0  0  0  0  0  0  0
   -0.6713    0.0539    0.2026 C   0  0  0  0  0  0  0  0  0  0  0  0
   -1.6078   -0.9244    0.1654 C   0  0  0  0  0  0  0  0  0  0  0  0
   -1.3214   -2.2772    0.1541 O   0  0  0  0  0  0  0  0  0  0  0  0
   -3.0030   -0.6089    0.1442 C   0  0  0  0  0  0  0  0  0  0  0  0
   -4.1699   -1.4289    0.0613 C   0  0  0  0  0  0  0  0  0  0  0  0
   -5.3201   -0.6485    0.1099 C   0  0  0  0  0  0  0  0  0  0  0  0
   -4.9888    1.0268    0.2145 S   0  0  0  0  0  0  0  0  0  0  0  0
   -3.3404    0.7146    0.2190 C   0  0  0  0  0  0  0  0  0  0  0  0
   -2.4594    1.7530    0.3040 N   0  0  0  0  0  0  0  0  0  0  0  0
   -1.1098    1.4889    0.3262 C   0  0  0  0  0  0  0  0  0  0  0  0
   -0.2996    2.4049    0.4419 O   0  0  0  0  0  0  0  0  0  0  0  0
   -6.7226   -1.1700    0.0487 C   0  0  0  0  0  0  0  0  0  0  0  0
   -6.7462   -2.6769    0.3427 C   0  0  0  0  0  0  0  0  0  0  0  0
   -5.6425   -3.4178   -0.4232 C   0  0  0  0  0  0  0  0  0  0  0  0
   -4.2402   -2.9266   -0.0277 C   0  0  0  0  0  0  0  0  0  0  0  0
    3.0916    0.3773   -0.2845 C   0  0  0  0  0  0  0  0  0  0  0  0
    3.5819   -0.0696    0.9538 C   0  0  0  0  0  0  0  0  0  0  0  0
    4.9571   -0.0994    1.2369 C   0  0  0  0  0  0  0  0  0  0  0  0
    5.4785   -0.5969    2.5378 C   0  0  0  0  0  0  0  0  0  0  0  0
    4.6869   -1.4525    3.2517 N   0  0  0  0  0  0  0  0  0  0  0  0
    6.5904   -0.2839    2.9433 O   0  0  0  0  0  0  0  0  0  0  0  0
    5.8727    0.3694    0.2940 C   0  0  0  0  0  0  0  0  0  0  0  0
    5.4111    0.8507   -0.9305 C   0  0  0  0  0  0  0  0  0  0  0  0
    6.3347    1.3655   -1.9703 C   0  0  0  0  0  0  0  0  0  0  0  0
    6.0036    1.8023   -3.0571 O   0  0  0  0  0  0  0  0  0  0  0  0
    7.6243    1.3037   -1.6011 O   0  0  0  0  0  0  0  0  0  0  0  0
    4.0334    0.8548   -1.2111 C   0  0  0  0  0  0  0  0  0  0  0  0
  1  2  1  0
  2  3  1  0
  3  4  2  0
  3  5  1  0
  5  6  2  0
  6  7  1  0
  6  8  1  0
  8  9  1  0
  9 10  2  0
 10 11  1  0
 11 12  1  0
 12 13  1  0
 13 14  1  0
 14 15  2  0
 10 16  1  0
 16 17  1  0
 17 18  1  0
 18 19  1  0
  2 20  1  0
 20 21  2  0
 21 22  1  0
 22 23  1  0
 23 24  1  0
 23 25  2  0
 22 26  2  0
 26 27  1  0
 27 28  1  0
 28 29  2  0
 28 30  1  0
 27 31  2  0
 14  5  1  0
 31 20  1  0
 12  8  2  0
 19  9  1  0
M  END
>  <energy>  (156) 
-28.75

>  <full_id>  (156) 
MOL00006248-000346-02_1

>  <mol_id>  (156) 
MOL00006248-000346-02

>  <act_mol>  (156) 
0

>  <act_conf>  (156) 
0

$$$$
MOL00006082-001412-02
     RDKit          3D

 31 35  0  0  0  0  0  0  0  0999 V2000
   -3.8645    0.5408    0.9007 O   0  0  0  0  0  0  0  0  0  0  0  0
   -4.1322   -0.0233   -0.1513 C   0  0  0  0  0  0  0  0  0  0  0  0
   -3.2585   -0.1394   -1.2279 N   0  0  0  0  0  0  0  0  0  0  0  0
   -1.9863    0.4507   -1.3682 C   0  0  0  0  0  0  0  0  0  0  0  0
   -1.4899    1.4405   -0.5148 C   0  0  0  0  0  0  0  0  0  0  0  0
   -0.2210    1.9899   -0.7248 C   0  0  0  0  0  0  0  0  0  0  0  0
    0.5563    1.5443   -1.7951 C   0  0  0  0  0  0  0  0  0  0  0  0
    2.1722    2.2299   -2.0425 S   0  0  0  0  0  6  0  0  0  0  0  0
    1.9989    3.6563   -2.2071 O   0  0  0  0  0  0  0  0  0  0  0  0
    2.8713    1.4355   -3.0261 O   0  0  0  0  0  0  0  0  0  0  0  0
    2.9115    2.0272   -0.5545 N   0  0  0  0  0  0  0  0  0  0  0  0
    3.5853    0.7987   -0.0989 C   0  0  2  0  0  0  0  0  0  0  0  0
    2.7943   -0.4902   -0.3994 C   0  0  0  0  0  0  0  0  0  0  0  0
    3.5397   -1.7181    0.1570 C   0  0  1  0  0  0  0  0  0  0  0  0
    4.9360   -1.7959   -0.4848 C   0  0  0  0  0  0  0  0  0  0  0  0
    5.7406   -0.5255   -0.1589 C   0  0  2  0  0  0  0  0  0  0  0  0
    5.8748   -0.3889    1.3666 C   0  0  0  0  0  0  0  0  0  0  0  0
    4.4818   -0.3020    2.0111 C   0  0  2  0  0  0  0  0  0  0  0  0
    3.6881   -1.5753    1.6799 C   0  0  0  0  0  0  0  0  0  0  0  0
    3.7386    0.9171    1.4412 C   0  0  0  0  0  0  0  0  0  0  0  0
    4.9973    0.7026   -0.7153 C   0  0  0  0  0  0  0  0  0  0  0  0
    0.0712    0.5670   -2.6644 C   0  0  0  0  0  0  0  0  0  0  0  0
   -1.1997    0.0263   -2.4493 C   0  0  0  0  0  0  0  0  0  0  0  0
   -5.3316   -0.6337   -0.4562 N   0  0  0  0  0  0  0  0  0  0  0  0
   -6.4156   -0.8083    0.4150 C   0  0  0  0  0  0  0  0  0  0  0  0
   -6.3013   -0.5824    1.7362 N   0  0  0  0  0  0  0  0  0  0  0  0
   -7.3940   -0.7846    2.5029 C   0  0  0  0  0  0  0  0  0  0  0  0
   -8.6144   -1.2186    2.0100 C   0  0  0  0  0  0  0  0  0  0  0  0
   -8.7260   -1.4611    0.6451 C   0  0  0  0  0  0  0  0  0  0  0  0
   -7.6116   -1.2558   -0.1609 C   0  0  0  0  0  0  0  0  0  0  0  0
   -7.6711   -1.4827   -1.5122 O   0  0  0  0  0  0  0  0  0  0  0  0
  1  2  2  0
  2  3  1  0
  3  4  1  0
  4  5  2  0
  5  6  1  0
  6  7  2  0
  7  8  1  0
  8  9  2  0
  8 10  2  0
  8 11  1  0
 12 11  1  6
 12 13  1  0
 14 13  1  6
 14 15  1  0
 16 15  1  1
 16 17  1  0
 18 17  1  6
 18 19  1  0
 18 20  1  0
 16 21  1  0
  7 22  1  0
 22 23  2  0
  2 24  1  0
 24 25  1  0
 25 26  2  0
 26 27  1  0
 27 28  2  0
 28 29  1  0
 29 30  2  0
 30 31  1  0
 23  4  1  0
 30 25  1  0
 20 12  1  0
 21 12  1  0
 19 14  1  0
M  END
>  <energy>  (157) 
-61.95

>  <full_id>  (157) 
MOL00006082-001412-02_1

>  <mol_id>  (157) 
MOL00006082-001412-02

>  <act_mol>  (157) 
0

>  <act_conf>  (157) 
0

$$$$
MOL00006092-000359-02
     RDKit          3D

 34 36  0  0  0  0  0  0  0  0999 V2000
    7.5685   -2.5582    0.7093 C   0  0  0  0  0  0  0  0  0  0  0  0
    6.1860   -2.6005    0.3830 O   0  0  0  0  0  0  0  0  0  0  0  0
    5.4438   -1.4769    0.6362 C   0  0  0  0  0  0  0  0  0  0  0  0
    5.9203   -0.3298    1.2745 C   0  0  0  0  0  0  0  0  0  0  0  0
    5.0700    0.7602    1.4973 C   0  0  0  0  0  0  0  0  0  0  0  0
    3.7314    0.7246    1.0806 C   0  0  0  0  0  0  0  0  0  0  0  0
    2.8870    1.9196    1.3699 C   0  0  0  0  0  0  0  0  0  0  0  0
    3.4261    3.0207    1.3724 O   0  0  0  0  0  0  0  0  0  0  0  0
    1.5623    1.6538    1.6446 N   0  0  0  0  0  0  0  0  0  0  0  0
    0.5252    2.5590    1.9792 C   0  0  0  0  0  0  0  0  0  0  0  0
    0.7376    3.9401    2.0755 C   0  0  0  0  0  0  0  0  0  0  0  0
   -0.3121    4.7985    2.4119 C   0  0  0  0  0  0  0  0  0  0  0  0
   -0.0296    6.4931    2.5269 Cl  0  0  0  0  0  0  0  0  0  0  0  0
   -1.5878    4.3012    2.6617 C   0  0  0  0  0  0  0  0  0  0  0  0
   -1.8225    2.9308    2.5659 C   0  0  0  0  0  0  0  0  0  0  0  0
   -0.7777    2.0586    2.2140 C   0  0  0  0  0  0  0  0  0  0  0  0
   -1.0625    0.5984    2.1104 C   0  0  0  0  0  0  0  0  0  0  0  0
   -0.2092   -0.2213    2.4321 O   0  0  0  0  0  0  0  0  0  0  0  0
   -2.2897    0.2545    1.5849 N   0  0  0  0  0  0  0  0  0  0  0  0
   -2.6308   -1.1234    1.2924 C   0  0  0  0  0  0  0  0  0  0  0  0
   -1.9503   -1.6620    0.0330 C   0  0  0  0  0  0  0  0  0  0  0  0
   -2.2098   -0.8323   -1.2320 C   0  0  0  0  0  0  0  0  0  0  0  0
   -3.6329   -0.5938   -1.5258 N   0  0  0  0  0  0  0  0  0  0  0  0
   -4.3342   -1.8395   -1.9140 C   0  0  0  0  0  0  0  0  0  0  0  0
   -5.7934   -1.5627   -2.3135 C   0  0  0  0  0  0  0  0  0  0  0  0
   -5.8685   -0.6227   -3.3923 O   0  0  0  0  0  0  0  0  0  0  0  0
   -5.2363    0.6065   -3.0155 C   0  0  0  0  0  0  0  0  0  0  0  0
   -3.7648    0.3785   -2.6367 C   0  0  0  0  0  0  0  0  0  0  0  0
    3.2592   -0.4036    0.3998 C   0  0  0  0  0  0  0  0  0  0  0  0
    1.9627   -0.4471   -0.0536 O   0  0  0  0  0  0  0  0  0  0  0  0
    1.9241   -0.1806   -1.4575 C   0  0  0  0  0  0  0  0  0  0  0  0
    4.1018   -1.5125    0.2209 C   0  0  0  0  0  0  0  0  0  0  0  0
    3.6220   -2.6285   -0.4276 O   0  0  0  0  0  0  0  0  0  0  0  0
    3.0318   -3.5169    0.5220 C   0  0  0  0  0  0  0  0  0  0  0  0
  1  2  1  0
  2  3  1  0
  3  4  2  0
  4  5  1  0
  5  6  2  0
  6  7  1  0
  7  8  2  0
  7  9  1  0
  9 10  1  0
 10 11  2  0
 11 12  1  0
 12 13  1  0
 12 14  2  0
 14 15  1  0
 15 16  2  0
 16 17  1  0
 17 18  2  0
 17 19  1  0
 19 20  1  0
 20 21  1  0
 21 22  1  0
 22 23  1  0
 23 24  1  0
 24 25  1  0
 25 26  1  0
 26 27  1  0
 27 28  1  0
  6 29  1  0
 29 30  1  0
 30 31  1  0
 29 32  2  0
 32 33  1  0
 33 34  1  0
 32  3  1  0
 16 10  1  0
 28 23  1  0
M  END
>  <energy>  (158) 
126.70

>  <full_id>  (158) 
MOL00006092-000359-02_1

>  <mol_id>  (158) 
MOL00006092-000359-02

>  <act_mol>  (158) 
0

>  <act_conf>  (158) 
0

$$$$
MOL00006225-000399-04
     RDKit          3D

 31 34  0  0  0  0  0  0  0  0999 V2000
   -0.9649    0.5581    3.3940 C   0  0  0  0  0  0  0  0  0  0  0  0
   -0.5234    0.5944    2.0240 N   0  0  0  0  0  0  0  0  0  0  0  0
    0.7622    0.9212    1.6589 C   0  0  0  0  0  0  0  0  0  0  0  0
    1.6172    1.2710    2.4685 O   0  0  0  0  0  0  0  0  0  0  0  0
    1.0969    0.8877    0.1998 C   0  0  0  0  0  0  0  0  0  0  0  0
    2.1998    1.6656   -0.2039 C   0  0  0  0  0  0  0  0  0  0  0  0
    2.6015    1.7004   -1.5364 C   0  0  0  0  0  0  0  0  0  0  0  0
    3.6627    2.3995   -2.0381 O   0  0  0  0  0  0  0  0  0  0  0  0
    4.7113    2.7893   -1.1328 C   0  0  0  0  0  0  0  0  0  0  0  0
    5.5233    1.6517   -0.5915 C   0  0  0  0  0  0  0  0  0  0  0  0
    6.2000    0.8144   -1.4102 N   0  0  0  0  0  0  0  0  0  0  0  0
    6.7669   -0.0986   -0.5846 N   0  0  0  0  0  0  0  0  0  0  0  0
    6.4946    0.1677    0.7066 C   0  0  0  0  0  0  0  0  0  0  0  0
    5.7247    1.2890    0.7468 C   0  0  0  0  0  0  0  0  0  0  0  0
    5.3800    1.6625    2.1285 C   0  0  0  0  0  0  0  0  0  0  0  0
    5.8551    0.3997    2.9349 C   0  0  0  0  0  0  0  0  0  0  0  0
    6.8027   -0.4382    2.0045 C   0  0  0  0  0  0  0  0  0  0  0  0
    1.8704    0.9840   -2.4837 C   0  0  0  0  0  0  0  0  0  0  0  0
    0.7771    0.2027   -2.1014 C   0  0  0  0  0  0  0  0  0  0  0  0
    0.3845    0.1479   -0.7594 C   0  0  0  0  0  0  0  0  0  0  0  0
   -0.6213   -0.6777   -0.3359 O   0  0  0  0  0  0  0  0  0  0  0  0
   -1.7669   -0.7598   -1.1957 C   0  0  0  0  0  0  0  0  0  0  0  0
   -2.9371   -1.2712   -0.3482 C   0  0  1  0  0  0  0  0  0  0  0  0
   -3.2672   -0.2811    0.6421 O   0  0  0  0  0  0  0  0  0  0  0  0
   -4.1812   -1.5490   -1.2152 C   0  0  0  0  0  0  0  0  0  0  0  0
   -5.3854   -1.8183   -0.3903 N   0  0  0  0  0  0  0  0  0  0  0  0
   -5.3003   -3.1276    0.2845 C   0  0  0  0  0  0  0  0  0  0  0  0
   -6.5386   -3.3973    1.1427 C   0  0  0  0  0  0  0  0  0  0  0  0
   -7.8167   -3.3086    0.3192 C   0  0  0  0  0  0  0  0  0  0  0  0
   -7.8669   -1.9857   -0.4335 C   0  0  0  0  0  0  0  0  0  0  0  0
   -6.5889   -1.7590   -1.2423 C   0  0  0  0  0  0  0  0  0  0  0  0
  1  2  1  0
  2  3  1  0
  3  4  2  0
  3  5  1  0
  5  6  2  0
  6  7  1  0
  7  8  1  0
  8  9  1  0
  9 10  1  0
 10 11  2  0
 11 12  1  0
 12 13  1  0
 13 14  2  0
 14 15  1  0
 15 16  1  0
 16 17  1  0
  7 18  2  0
 18 19  1  0
 19 20  2  0
 20 21  1  0
 21 22  1  0
 22 23  1  0
 23 24  1  1
 23 25  1  0
 25 26  1  0
 26 27  1  0
 27 28  1  0
 28 29  1  0
 29 30  1  0
 30 31  1  0
 20  5  1  0
 31 26  1  0
 14 10  1  0
 17 13  1  0
M  END
>  <energy>  (159) 
102.37

>  <full_id>  (159) 
MOL00006225-000399-04_1

>  <mol_id>  (159) 
MOL00006225-000399-04

>  <act_mol>  (159) 
0

>  <act_conf>  (159) 
0

$$$$
MOL00006474-001510-03
     RDKit          3D

 25 27  0  0  0  0  0  0  0  0999 V2000
    3.3569    1.7968   -1.8590 C   0  0  0  0  0  0  0  0  0  0  0  0
    2.7005    0.7083   -1.1469 N   0  0  0  0  0  0  0  0  0  0  0  0
    1.3183    0.5809   -1.2713 C   0  0  0  0  0  0  0  0  0  0  0  0
    0.6392    1.3118   -2.0005 O   0  0  0  0  0  0  0  0  0  0  0  0
    0.7281   -0.4493   -0.5341 N   0  0  0  0  0  0  0  0  0  0  0  0
   -0.6833   -0.5852   -0.7202 N   0  0  0  0  0  0  0  0  0  0  0  0
   -1.5587   -0.4278    0.3388 C   0  0  0  0  0  0  0  0  0  0  0  0
   -2.8429   -0.0177    0.3503 C   0  0  0  0  0  0  0  0  0  0  0  0
   -3.5527    0.3512   -0.8698 C   0  0  0  0  0  0  0  0  0  0  0  0
   -4.8243    0.7762   -0.8384 C   0  0  0  0  0  0  0  0  0  0  0  0
   -5.5261    0.8672    0.4672 C   0  0  0  0  0  0  0  0  0  0  0  0
   -6.9089    1.3413    0.5283 N   0  0  0  0  0  4  0  0  0  0  0  0
   -7.4444    1.6481   -0.5435 O   0  0  0  0  0  1  0  0  0  0  0  0
   -7.4326    1.3992    1.6474 O   0  0  0  0  0  1  0  0  0  0  0  0
   -4.8174    0.4693    1.7097 C   0  0  0  0  0  0  0  0  0  0  0  0
   -3.5465    0.0505    1.6282 C   0  0  0  0  0  0  0  0  0  0  0  0
    1.3934   -1.4658    0.1421 C   0  0  0  0  0  0  0  0  0  0  0  0
    0.8715   -2.4598    0.6430 O   0  0  0  0  0  0  0  0  0  0  0  0
    2.8544   -1.2914    0.2523 C   0  0  0  0  0  0  0  0  0  0  0  0
    3.6003   -2.2214    0.9977 C   0  0  0  0  0  0  0  0  0  0  0  0
    4.9788   -2.0723    1.1182 C   0  0  0  0  0  0  0  0  0  0  0  0
    5.5975   -0.9996    0.4939 C   0  0  0  0  0  0  0  0  0  0  0  0
    6.9233   -0.8487    0.6047 F   0  0  0  0  0  0  0  0  0  0  0  0
    4.8662   -0.0744   -0.2497 C   0  0  0  0  0  0  0  0  0  0  0  0
    3.4758   -0.2086   -0.3816 C   0  0  0  0  0  0  0  0  0  0  0  0
  1  2  1  0
  2  3  1  0
  3  4  2  0
  3  5  1  0
  5  6  1  0
  6  7  1  0
  7  8  2  3
  8  9  1  0
  9 10  2  0
 10 11  1  0
 11 12  2  3
 12 13  1  0
 12 14  1  0
 11 15  1  0
 15 16  2  0
  5 17  1  0
 17 18  2  0
 17 19  1  0
 19 20  2  0
 20 21  1  0
 21 22  2  0
 22 23  1  0
 22 24  1  0
 24 25  2  0
 25  2  1  0
 16  8  1  0
 25 19  1  0
M  CHG  3  12   1  13  -1  14  -1
M  END
>  <energy>  (160) 
91.88

>  <full_id>  (160) 
MOL00006474-001510-03_1

>  <mol_id>  (160) 
MOL00006474-001510-03

>  <act_mol>  (160) 
0

>  <act_conf>  (160) 
0

$$$$
MOL00006503-000974-03
     RDKit          3D

 27 28  0  0  0  0  0  0  0  0999 V2000
   -7.8633    2.1442    1.4597 C   0  0  0  0  0  0  0  0  0  0  0  0
   -7.9353    0.9743    0.5304 C   0  0  0  0  0  0  0  0  0  0  0  0
   -6.9991    0.0264    0.3313 C   0  0  0  0  0  0  0  0  0  0  0  0
   -7.2868   -1.1018   -0.6333 C   0  0  0  0  0  0  0  0  0  0  0  0
   -5.7757   -0.0050    0.9740 N   0  0  0  0  0  0  0  0  0  0  0  0
   -4.7058   -0.6969    0.3819 O   0  0  0  0  0  0  0  0  0  0  0  0
   -3.4937   -0.0785    0.6017 C   0  0  0  0  0  0  0  0  0  0  0  0
   -3.3933    0.9725    1.2229 O   0  0  0  0  0  0  0  0  0  0  0  0
   -2.5050   -0.8250    0.0200 N   0  0  0  0  0  0  0  0  0  0  0  0
   -1.1179   -0.5803   -0.0151 C   0  0  0  0  0  0  0  0  0  0  0  0
   -0.5418    0.5423    0.5859 C   0  0  0  0  0  0  0  0  0  0  0  0
    0.8402    0.7567    0.5327 C   0  0  0  0  0  0  0  0  0  0  0  0
    1.6781   -0.1454   -0.1222 C   0  0  0  0  0  0  0  0  0  0  0  0
    3.0525    0.1426   -0.1300 N   0  0  0  0  0  0  0  0  0  0  0  0
    4.0873   -0.5778   -0.7019 C   0  0  0  0  0  0  0  0  0  0  0  0
    3.9820   -1.6272   -1.3227 O   0  0  0  0  0  0  0  0  0  0  0  0
    5.4340    0.0833   -0.4798 C   0  0  0  0  0  0  0  0  0  0  0  0
    5.3563    1.2511    0.2348 N   0  0  0  0  0  0  0  0  0  0  0  0
    6.5165    1.9013    0.4749 C   0  0  0  0  0  0  0  0  0  0  0  0
    7.7502    1.4514    0.0418 C   0  0  0  0  0  0  0  0  0  0  0  0
    8.8630    2.1775    0.3338 O   0  0  0  0  0  0  0  0  0  0  0  0
    7.8155    0.2676   -0.6809 C   0  0  0  0  0  0  0  0  0  0  0  0
    6.6395   -0.4485   -0.9586 C   0  0  0  0  0  0  0  0  0  0  0  0
    6.7265   -1.7256   -1.7403 C   0  0  0  0  0  0  0  0  0  0  0  0
    1.1114   -1.2676   -0.7241 C   0  0  0  0  0  0  0  0  0  0  0  0
   -0.2798   -1.4991   -0.6799 C   0  0  0  0  0  0  0  0  0  0  0  0
   -0.8141   -2.7353   -1.3544 C   0  0  0  0  0  0  0  0  0  0  0  0
  1  2  1  0
  2  3  2  0
  3  4  1  0
  3  5  1  0
  5  6  1  0
  6  7  1  0
  7  8  2  0
  7  9  1  0
  9 10  1  0
 10 11  2  0
 11 12  1  0
 12 13  2  0
 13 14  1  0
 14 15  1  0
 15 16  2  0
 15 17  1  0
 17 18  2  0
 18 19  1  0
 19 20  2  0
 20 21  1  0
 20 22  1  0
 22 23  2  0
 23 24  1  0
 13 25  1  0
 25 26  2  0
 26 27  1  0
 26 10  1  0
 23 17  1  0
M  END
>  <energy>  (161) 
64.78

>  <full_id>  (161) 
MOL00006503-000974-03_1

>  <mol_id>  (161) 
MOL00006503-000974-03

>  <act_mol>  (161) 
0

>  <act_conf>  (161) 
0

$$$$
MOL00006385-000942-03
     RDKit          3D

 30 32  0  0  0  0  0  0  0  0999 V2000
   -0.9462   -5.1526   -1.0054 C   0  0  0  0  0  0  0  0  0  0  0  0
    0.5538   -4.9182   -0.8980 C   0  0  0  0  0  0  0  0  0  0  0  0
    0.9606   -3.5447   -1.3738 C   0  0  0  0  0  0  0  0  0  0  0  0
    1.4195   -3.2806   -2.6568 C   0  0  0  0  0  0  0  0  0  0  0  0
    1.6178   -4.2352   -3.7893 C   0  0  0  0  0  0  0  0  0  0  0  0
    1.7623   -1.6283   -2.8836 S   0  0  0  0  0  0  0  0  0  0  0  0
    1.4064   -1.2585   -1.2663 C   0  0  0  0  0  0  0  0  0  0  0  0
    1.6926    0.0581   -0.9856 N   0  0  0  0  0  0  0  0  0  0  0  0
    1.9068    0.5599    0.2716 C   0  0  0  0  0  0  0  0  0  0  0  0
    2.0893   -0.0626    1.3102 O   0  0  0  0  0  0  0  0  0  0  0  0
    2.0193    2.0298    0.2850 C   0  0  0  0  0  0  0  0  0  0  0  0
    1.0736    2.9207   -0.0518 C   0  0  0  0  0  0  0  0  0  0  0  0
   -0.2864    2.6088   -0.5050 C   0  0  0  0  0  0  0  0  0  0  0  0
   -0.7438    1.5096   -0.7581 O   0  0  0  0  0  0  0  0  0  0  0  0
   -1.0294    3.7214   -0.6073 O   0  0  0  0  0  0  0  0  0  0  0  0
    1.5405    4.3203    0.2039 C   0  0  0  0  0  0  0  0  0  0  0  0
    3.0441    4.1382    0.4209 C   0  0  0  0  0  0  0  0  0  0  0  0
    3.2314    2.6865    0.8607 C   0  0  0  0  0  0  0  0  0  0  0  0
    0.8719   -2.3259   -0.5686 C   0  0  0  0  0  0  0  0  0  0  0  0
    0.2598   -2.2637    0.7650 C   0  0  0  0  0  0  0  0  0  0  0  0
    0.3701   -3.1707    1.5869 O   0  0  0  0  0  0  0  0  0  0  0  0
   -0.5473   -1.1667    0.9818 N   0  0  0  0  0  0  0  0  0  0  0  0
   -1.1526   -0.9415    2.2668 C   0  0  0  0  0  0  0  0  0  0  0  0
   -1.5501    0.5000    2.4394 C   0  0  0  0  0  0  0  0  0  0  0  0
   -0.6870    1.3995    3.0857 C   0  0  0  0  0  0  0  0  0  0  0  0
   -1.0344    2.7446    3.2238 C   0  0  0  0  0  0  0  0  0  0  0  0
   -2.2440    3.2080    2.7061 C   0  0  0  0  0  0  0  0  0  0  0  0
   -3.0973    2.3241    2.0468 C   0  0  0  0  0  0  0  0  0  0  0  0
   -4.5634    2.9073    1.3605 Cl  0  0  0  0  0  0  0  0  0  0  0  0
   -2.7584    0.9773    1.9120 C   0  0  0  0  0  0  0  0  0  0  0  0
  1  2  1  0
  2  3  1  0
  3  4  2  0
  4  5  1  0
  4  6  1  0
  6  7  1  0
  7  8  1  0
  8  9  1  0
  9 10  2  0
  9 11  1  0
 11 12  2  0
 12 13  1  0
 13 14  2  0
 13 15  1  0
 12 16  1  0
 16 17  1  0
 17 18  1  0
  7 19  2  0
 19 20  1  0
 20 21  2  0
 20 22  1  0
 22 23  1  0
 23 24  1  0
 24 25  2  0
 25 26  1  0
 26 27  2  0
 27 28  1  0
 28 29  1  0
 28 30  2  0
 19  3  1  0
 30 24  1  0
 18 11  1  0
M  END
>  <energy>  (162) 
-58.11

>  <full_id>  (162) 
MOL00006385-000942-03_1

>  <mol_id>  (162) 
MOL00006385-000942-03

>  <act_mol>  (162) 
0

>  <act_conf>  (162) 
0

$$$$
MOL00006694-000017-03
     RDKit          3D

 20 20  0  0  0  0  0  0  0  0999 V2000
    4.0157   -1.5664   -1.7646 C   0  0  0  0  0  0  0  0  0  0  0  0
    3.2482    0.0304   -1.8926 S   0  0  0  0  0  6  0  0  0  0  0  0
    4.2973    1.0303   -1.9204 O   0  0  0  0  0  0  0  0  0  0  0  0
    2.2530   -0.0360   -2.9462 O   0  0  0  0  0  0  0  0  0  0  0  0
    2.3839    0.1872   -0.3506 C   0  0  0  0  0  0  0  0  0  0  0  0
    1.6980    1.5411   -0.2856 C   0  0  0  0  0  0  0  0  0  0  0  0
    0.7701    1.5849    0.8448 N   0  0  0  0  0  0  0  0  0  0  0  0
   -0.5906    1.2878    0.6977 C   0  0  0  0  0  0  0  0  0  0  0  0
   -1.0821    0.5141   -0.3690 C   0  0  0  0  0  0  0  0  0  0  0  0
   -2.4391    0.1327   -0.4743 C   0  0  0  0  0  0  0  0  0  0  0  0
   -2.8545   -0.6963   -1.6749 C   0  0  0  0  0  0  0  0  0  0  0  0
   -2.5171   -2.1201   -1.5149 C   0  0  0  0  0  0  0  0  0  0  0  0
   -2.2124   -3.2340   -1.3960 N   0  0  0  0  0  0  0  0  0  0  0  0
   -3.3078    0.5282    0.5578 C   0  0  0  0  0  0  0  0  0  0  0  0
   -4.7207    0.1620    0.5529 N   0  0  0  0  0  4  0  0  0  0  0  0
   -5.5358    1.0556    0.8141 O   0  0  0  0  0  0  0  0  0  0  0  0
   -5.0027   -1.0123    0.2870 O   0  0  0  0  0  1  0  0  0  0  0  0
   -2.8534    1.2871    1.6422 C   0  0  0  0  0  0  0  0  0  0  0  0
   -1.5063    1.6477    1.7087 C   0  0  0  0  0  0  0  0  0  0  0  0
   -0.9440    2.6635    3.2184 Br  0  0  0  0  0  0  0  0  0  0  0  0
  2  1  1  0
  2  3  2  0
  2  4  2  0
  2  5  1  0
  5  6  1  0
  6  7  1  0
  7  8  1  0
  8  9  2  0
  9 10  1  0
 10 11  1  0
 11 12  1  0
 12 13  3  0
 10 14  2  0
 14 15  1  0
 15 16  2  0
 15 17  1  0
 14 18  1  0
 18 19  2  0
 19 20  1  0
 19  8  1  0
M  CHG  2  15   1  17  -1
M  END
>  <energy>  (163) 
55.08

>  <full_id>  (163) 
MOL00006694-000017-03_1

>  <mol_id>  (163) 
MOL00006694-000017-03

>  <act_mol>  (163) 
0

>  <act_conf>  (163) 
0

$$$$
MOL00006465-000031-02
     RDKit          3D

 31 35  0  0  0  0  0  0  0  0999 V2000
    3.5122   -4.1930    0.5999 C   0  0  0  0  0  0  0  0  0  0  0  0
    2.5164   -3.1038    0.3550 C   0  0  0  0  0  0  0  0  0  0  0  0
    1.1703   -3.4174    0.2647 C   0  0  0  0  0  0  0  0  0  0  0  0
    0.1879   -2.5203    0.0666 N   0  0  0  0  0  0  0  0  0  0  0  0
    0.5826   -1.2464   -0.0352 C   0  0  0  0  0  0  0  0  0  0  0  0
   -0.3427   -0.2513   -0.2522 O   0  0  0  0  0  0  0  0  0  0  0  0
   -1.6794   -0.7399   -0.2803 C   0  0  0  0  0  0  0  0  0  0  0  0
   -2.6237    0.4259   -0.4882 C   0  0  0  0  0  0  0  0  0  0  0  0
   -2.5423    1.5631    0.3327 C   0  0  0  0  0  0  0  0  0  0  0  0
   -3.4245    2.6303    0.1579 C   0  0  0  0  0  0  0  0  0  0  0  0
   -4.4039    2.5565   -0.8351 C   0  0  0  0  0  0  0  0  0  0  0  0
   -5.5143    3.9228   -1.0538 S   0  0  0  0  0  6  0  0  0  0  0  0
   -6.3422    3.6623   -2.2139 O   0  0  0  0  0  0  0  0  0  0  0  0
   -4.7475    5.1442   -0.9328 O   0  0  0  0  0  0  0  0  0  0  0  0
   -6.5041    3.7775    0.3237 N   0  0  0  0  0  0  0  0  0  0  0  0
   -7.5077    2.6816    0.5100 C   0  0  0  0  0  0  0  0  0  0  0  0
   -8.6511    3.6985    0.3880 C   0  0  0  0  0  0  0  0  0  0  0  0
   -7.5810    4.7707    0.6364 C   0  0  0  0  0  0  0  0  0  0  0  0
   -4.5001    1.4351   -1.6619 C   0  0  0  0  0  0  0  0  0  0  0  0
   -3.6138    0.3708   -1.4823 C   0  0  0  0  0  0  0  0  0  0  0  0
    1.8480   -0.8198    0.0499 N   0  0  0  0  0  0  0  0  0  0  0  0
    2.8178   -1.7475    0.2579 C   0  0  0  0  0  0  0  0  0  0  0  0
    4.2278   -1.1726    0.3336 C   0  0  2  0  0  0  0  0  0  0  0  0
    4.9461   -1.2931   -1.0388 C   0  0  0  0  0  0  0  0  0  0  0  0
    6.3741   -0.7174   -0.9887 C   0  0  0  0  0  0  0  0  0  0  0  0
    6.9934   -1.1235    0.2878 C   0  0  0  0  0  0  0  0  0  0  0  0
    8.3063   -1.0730    0.6547 N   0  0  0  0  0  0  0  0  0  0  0  0
    8.3658   -1.5063    1.9569 C   0  0  0  0  0  0  0  0  0  0  0  0
    7.1759   -1.8241    2.4271 N   0  0  0  0  0  0  0  0  0  0  0  0
    6.3425   -1.5942    1.3918 C   0  0  0  0  0  0  0  0  0  0  0  0
    5.0183   -1.7778    1.4167 N   0  0  0  0  0  0  0  0  0  0  0  0
  1  2  1  0
  2  3  2  0
  3  4  1  0
  4  5  2  0
  5  6  1  0
  6  7  1  0
  7  8  1  0
  8  9  2  0
  9 10  1  0
 10 11  2  0
 11 12  1  0
 12 13  2  0
 12 14  2  0
 12 15  1  0
 15 16  1  0
 16 17  1  0
 17 18  1  0
 11 19  1  0
 19 20  2  0
  5 21  1  0
 21 22  2  0
 23 22  1  6
 23 24  1  0
 24 25  1  0
 25 26  1  0
 26 27  1  0
 27 28  1  0
 28 29  2  0
 29 30  1  0
 30 31  1  0
 22  2  1  0
 31 23  1  0
 20  8  1  0
 30 26  2  0
 18 15  1  0
M  END
>  <energy>  (164) 
-77.49

>  <full_id>  (164) 
MOL00006465-000031-02_1

>  <mol_id>  (164) 
MOL00006465-000031-02

>  <act_mol>  (164) 
0

>  <act_conf>  (164) 
0

$$$$
MOL00006945-000887-03
     RDKit          3D

 20 21  0  0  0  0  0  0  0  0999 V2000
    6.2699    1.1197    0.7955 C   0  0  0  0  0  0  0  0  0  0  0  0
    5.5268    0.1191    0.3053 C   0  0  0  0  0  0  0  0  0  0  0  0
    4.0593    0.1095    0.2629 C   0  0  0  0  0  0  0  0  0  0  0  0
    3.4158   -0.5705   -0.7717 C   0  0  0  0  0  0  0  0  0  0  0  0
    2.0165   -0.6290   -0.8377 C   0  0  0  0  0  0  0  0  0  0  0  0
    1.2157   -0.0192    0.1350 C   0  0  0  0  0  0  0  0  0  0  0  0
   -0.2045   -0.0649    0.0888 N   0  0  0  0  0  0  0  0  0  0  0  0
   -1.0079   -0.6693   -0.8607 C   0  0  0  0  0  0  0  0  0  0  0  0
   -0.6076   -1.2811   -1.8484 O   0  0  0  0  0  0  0  0  0  0  0  0
   -2.4900   -0.5329   -0.6203 C   0  0  0  0  0  0  0  0  0  0  0  0
   -3.3321   -1.1701   -1.4614 C   0  0  0  0  0  0  0  0  0  0  0  0
   -4.8257   -1.1177   -1.3314 C   0  0  0  0  0  0  0  0  0  0  0  0
   -5.2693    0.1114   -0.5474 C   0  0  0  0  0  0  0  0  0  0  0  0
   -4.4241    0.3453    0.5998 N   0  0  0  0  0  0  0  0  0  0  0  0
   -3.0619    0.2268    0.5306 C   0  0  0  0  0  0  0  0  0  0  0  0
   -2.3440    0.7203    1.3949 O   0  0  0  0  0  0  0  0  0  0  0  0
    1.8654    0.6545    1.1898 C   0  0  0  0  0  0  0  0  0  0  0  0
    1.1444    1.3092    2.2439 C   0  0  0  0  0  0  0  0  0  0  0  0
    0.5876    1.8494    3.1070 N   0  0  0  0  0  0  0  0  0  0  0  0
    3.2718    0.7089    1.2487 C   0  0  0  0  0  0  0  0  0  0  0  0
  1  2  2  0
  2  3  1  0
  3  4  2  0
  4  5  1  0
  5  6  2  0
  6  7  1  0
  7  8  1  0
  8  9  2  0
  8 10  1  0
 10 11  2  0
 11 12  1  0
 12 13  1  0
 13 14  1  0
 14 15  1  0
 15 16  2  0
  6 17  1  0
 17 18  1  0
 18 19  3  0
 17 20  2  0
 20  3  1  0
 15 10  1  0
M  END
>  <energy>  (165) 
17.93

>  <full_id>  (165) 
MOL00006945-000887-03_1

>  <mol_id>  (165) 
MOL00006945-000887-03

>  <act_mol>  (165) 
0

>  <act_conf>  (165) 
0

$$$$
MOL00006351-001568-02
     RDKit          3D

 35 38  0  0  0  0  0  0  0  0999 V2000
    5.8488   -3.7191    2.3129 C   0  0  0  0  0  0  0  0  0  0  0  0
    4.5346   -3.0105    2.4669 C   0  0  0  0  0  0  0  0  0  0  0  0
    4.0592   -2.6985    3.7507 C   0  0  0  0  0  0  0  0  0  0  0  0
    2.8440   -2.0331    3.9133 C   0  0  0  0  0  0  0  0  0  0  0  0
    2.1124   -1.6729    2.7900 C   0  0  0  0  0  0  0  0  0  0  0  0
    0.9295   -1.0055    2.9711 O   0  0  0  0  0  0  0  0  0  0  0  0
    2.5723   -1.9643    1.5014 C   0  0  0  0  0  0  0  0  0  0  0  0
    1.7391   -1.5812    0.4916 O   0  0  0  0  0  0  0  0  0  0  0  0
    2.3167   -1.3712   -0.7983 C   0  0  0  0  0  0  0  0  0  0  0  0
    1.3321   -0.5205   -1.6154 C   0  0  2  0  0  0  0  0  0  0  0  0
    1.2698    0.7913   -1.0415 O   0  0  0  0  0  0  0  0  0  0  0  0
   -0.0604   -1.1740   -1.6815 C   0  0  0  0  0  0  0  0  0  0  0  0
   -1.0638   -0.3285   -2.2994 N   0  0  0  0  0  0  0  0  0  0  0  0
   -2.1018    0.3869   -1.7123 C   0  0  0  0  0  0  0  0  0  0  0  0
   -2.4364    0.6013   -0.3956 N   0  0  0  0  0  0  0  0  0  0  0  0
   -1.6746    0.4681    0.7402 C   0  0  0  0  0  0  0  0  0  0  0  0
   -0.4895    0.1491    0.8035 O   0  0  0  0  0  0  0  0  0  0  0  0
   -2.4518    0.7978    2.0084 C   0  0  0  0  0  0  0  0  0  0  0  0
   -2.1549    2.1879    2.5081 C   0  0  0  0  0  0  0  0  0  0  0  0
   -0.9990    2.4324    3.2638 C   0  0  0  0  0  0  0  0  0  0  0  0
   -0.7042    3.7218    3.7076 C   0  0  0  0  0  0  0  0  0  0  0  0
   -1.5578    4.7787    3.3981 C   0  0  0  0  0  0  0  0  0  0  0  0
   -2.7068    4.5475    2.6437 C   0  0  0  0  0  0  0  0  0  0  0  0
   -3.0051    3.2586    2.1982 C   0  0  0  0  0  0  0  0  0  0  0  0
   -2.9055    0.8860   -2.6383 N   0  0  0  0  0  0  0  0  0  0  0  0
   -2.3538    0.5367   -3.8226 C   0  0  0  0  0  0  0  0  0  0  0  0
   -1.2364   -0.2159   -3.6588 C   0  0  0  0  0  0  0  0  0  0  0  0
   -0.5799   -0.6788   -4.8132 C   0  0  0  0  0  0  0  0  0  0  0  0
    0.5021   -1.4414   -4.6094 O   0  0  0  0  0  0  0  0  0  0  0  0
   -0.9662   -0.4205   -6.0076 N   0  0  0  0  0  0  0  0  0  0  0  0
   -2.0981    0.3657   -6.1898 C   0  0  0  0  0  0  0  0  0  0  0  0
   -2.4651    0.6304   -7.3338 O   0  0  0  0  0  0  0  0  0  0  0  0
   -2.8169    0.8447   -5.0798 N   0  0  0  0  0  0  0  0  0  0  0  0
   -4.0003    1.6614   -5.2548 C   0  0  0  0  0  0  0  0  0  0  0  0
    3.7830   -2.6366    1.3400 C   0  0  0  0  0  0  0  0  0  0  0  0
  1  2  1  0
  2  3  2  0
  3  4  1  0
  4  5  2  0
  5  6  1  0
  5  7  1  0
  7  8  1  0
  8  9  1  0
  9 10  1  0
 10 11  1  1
 10 12  1  0
 12 13  1  0
 13 14  1  0
 14 15  1  0
 15 16  1  0
 16 17  2  0
 16 18  1  0
 18 19  1  0
 19 20  2  0
 20 21  1  0
 21 22  2  0
 22 23  1  0
 23 24  2  0
 14 25  2  0
 25 26  1  0
 26 27  2  0
 27 28  1  0
 28 29  1  0
 28 30  2  0
 30 31  1  0
 31 32  2  0
 31 33  1  0
 33 34  1  0
  7 35  2  0
 35  2  1  0
 27 13  1  0
 24 19  1  0
 33 26  1  0
M  END
>  <energy>  (166) 
-85.77

>  <full_id>  (166) 
MOL00006351-001568-02_1

>  <mol_id>  (166) 
MOL00006351-001568-02

>  <act_mol>  (166) 
0

>  <act_conf>  (166) 
0

$$$$
MOL00007043-002348-03
     RDKit          3D

 21 22  0  0  0  0  0  0  0  0999 V2000
   -4.8254    1.1290    1.4464 C   0  0  0  0  0  0  0  0  0  0  0  0
   -4.3701   -0.1827    0.7833 C   0  0  0  0  0  0  0  0  0  0  0  0
   -4.7841   -1.3586    1.6886 C   0  0  0  0  0  0  0  0  0  0  0  0
   -5.0707   -0.3424   -0.5772 C   0  0  0  0  0  0  0  0  0  0  0  0
   -2.8734   -0.1751    0.5962 C   0  0  0  0  0  0  0  0  0  0  0  0
   -1.9901   -1.0138    1.0945 N   0  0  0  0  0  0  0  0  0  0  0  0
   -0.7756   -0.5616    0.6143 C   0  0  0  0  0  0  0  0  0  0  0  0
    0.5258   -1.2079    0.9107 C   0  0  0  0  0  0  0  0  0  0  0  0
    0.6146   -2.1898    1.6425 O   0  0  0  0  0  0  0  0  0  0  0  0
    1.5847   -0.5714    0.2809 N   0  0  0  0  0  0  0  0  0  0  0  0
    2.9606   -0.8994    0.2937 C   0  0  0  0  0  0  0  0  0  0  0  0
    3.4499   -2.0272    0.9658 C   0  0  0  0  0  0  0  0  0  0  0  0
    4.8122   -2.3446    0.9493 C   0  0  0  0  0  0  0  0  0  0  0  0
    5.7110   -1.5438    0.2550 C   0  0  0  0  0  0  0  0  0  0  0  0
    5.2505   -0.4128   -0.4153 C   0  0  0  0  0  0  0  0  0  0  0  0
    3.8847   -0.0739   -0.3888 C   0  0  0  0  0  0  0  0  0  0  0  0
    3.4324    1.1582   -1.0979 C   0  0  0  0  0  0  0  0  0  0  0  0
    4.3306    2.1845   -1.2217 N   0  0  0  0  0  0  0  0  0  0  0  0
    2.2892    1.2833   -1.5199 O   0  0  0  0  0  0  0  0  0  0  0  0
   -0.8853    0.5393   -0.1576 N   0  0  0  0  0  0  0  0  0  0  0  0
   -2.2082    0.7520   -0.1566 N   0  0  0  0  0  0  0  0  0  0  0  0
  2  1  1  0
  2  3  1  0
  2  4  1  0
  2  5  1  0
  5  6  2  0
  6  7  1  0
  7  8  1  0
  8  9  2  0
  8 10  1  0
 10 11  1  0
 11 12  2  0
 12 13  1  0
 13 14  2  0
 14 15  1  0
 15 16  2  0
 16 17  1  0
 17 18  1  0
 17 19  2  0
  7 20  2  0
 20 21  1  0
 21  5  1  0
 16 11  1  0
M  END
>  <energy>  (167) 
74.52

>  <full_id>  (167) 
MOL00007043-002348-03_1

>  <mol_id>  (167) 
MOL00007043-002348-03

>  <act_mol>  (167) 
0

>  <act_conf>  (167) 
0

$$$$
MOL00006595-000602-04
     RDKit          3D

 33 36  0  0  0  0  0  0  0  0999 V2000
    9.4644    0.3717   -1.3510 C   0  0  0  0  0  0  0  0  0  0  0  0
    8.4448   -0.7031   -1.1144 C   0  0  0  0  0  0  0  0  0  0  0  0
    8.5674   -1.8588   -1.4983 O   0  0  0  0  0  0  0  0  0  0  0  0
    7.3820   -0.1512   -0.4079 O   0  0  0  0  0  0  0  0  0  0  0  0
    6.3041   -0.9825   -0.0628 C   0  0  0  0  0  0  0  0  0  0  0  0
    6.4851   -2.1956    0.5990 C   0  0  0  0  0  0  0  0  0  0  0  0
    5.3677   -2.9387    0.9772 C   0  0  0  0  0  0  0  0  0  0  0  0
    4.0826   -2.4613    0.7058 C   0  0  0  0  0  0  0  0  0  0  0  0
    3.8996   -1.2351    0.0490 C   0  0  0  0  0  0  0  0  0  0  0  0
    2.5021   -0.7132   -0.2332 C   0  0  0  0  0  0  0  0  0  0  0  0
    2.0192    0.3044    0.7910 C   0  0  0  0  0  0  0  0  0  0  0  0
    2.7915    1.0656    1.3843 O   0  0  0  0  0  0  0  0  0  0  0  0
    0.5565    0.3508    1.1315 C   0  0  0  0  0  0  0  0  0  0  0  0
    0.2742    0.6482    2.4834 C   0  0  0  0  0  0  0  0  0  0  0  0
   -1.0347    0.6968    2.9745 C   0  0  0  0  0  0  0  0  0  0  0  0
   -1.2855    0.9758    4.3311 C   0  0  0  0  0  0  0  0  0  0  0  0
   -2.5874    1.0052    4.8299 C   0  0  0  0  0  0  0  0  0  0  0  0
   -3.6544    0.7522    3.9782 C   0  0  0  0  0  0  0  0  0  0  0  0
   -3.4139    0.4773    2.6302 C   0  0  0  0  0  0  0  0  0  0  0  0
   -2.1045    0.4528    2.0951 C   0  0  0  0  0  0  0  0  0  0  0  0
   -1.8011    0.1824    0.7245 C   0  0  0  0  0  0  0  0  0  0  0  0
   -2.8673   -0.0333   -0.2483 N   0  0  0  0  0  0  0  0  0  0  0  0
   -3.7435    1.0149   -0.4904 N   0  0  0  0  0  0  0  0  0  0  0  0
   -4.8716    0.8446   -1.3216 C   0  0  0  0  0  0  0  0  0  0  0  0
   -5.5465    1.9661   -1.8145 C   0  0  0  0  0  0  0  0  0  0  0  0
   -6.7002    1.8242   -2.5951 C   0  0  0  0  0  0  0  0  0  0  0  0
   -7.1940    0.5576   -2.9119 C   0  0  0  0  0  0  0  0  0  0  0  0
   -8.4052    0.4231   -3.6081 N   0  0  0  0  0  0  0  0  0  0  0  0
   -6.5844   -0.5572   -2.3356 C   0  0  0  0  0  0  0  0  0  0  0  0
   -5.4298   -0.4155   -1.5576 C   0  0  0  0  0  0  0  0  0  0  0  0
   -0.4687    0.1204    0.1812 C   0  0  0  0  0  0  0  0  0  0  0  0
   -0.2797   -0.0967   -1.0714 O   0  0  0  0  0  1  0  0  0  0  0  0
    5.0257   -0.4899   -0.3243 C   0  0  0  0  0  0  0  0  0  0  0  0
  1  2  1  0
  2  3  2  0
  2  4  1  0
  4  5  1  0
  5  6  2  0
  6  7  1  0
  7  8  2  0
  8  9  1  0
  9 10  1  0
 10 11  1  0
 11 12  2  0
 11 13  1  0
 13 14  2  0
 14 15  1  0
 15 16  2  0
 16 17  1  0
 17 18  2  0
 18 19  1  0
 19 20  2  0
 20 21  1  0
 21 22  1  0
 22 23  1  0
 23 24  1  0
 24 25  2  0
 25 26  1  0
 26 27  2  0
 27 28  1  0
 27 29  1  0
 29 30  2  0
 21 31  2  0
 31 32  1  0
  9 33  2  0
 33  5  1  0
 31 13  1  0
 20 15  1  0
 30 24  1  0
M  CHG  1  32  -1
M  END
>  <energy>  (168) 
120.66

>  <full_id>  (168) 
MOL00006595-000602-04_1

>  <mol_id>  (168) 
MOL00006595-000602-04

>  <act_mol>  (168) 
0

>  <act_conf>  (168) 
0

$$$$
MOL00006618-000116-04
     RDKit          3D

 29 31  0  0  0  0  0  0  0  0999 V2000
   -4.4533    1.1906    2.4379 C   0  0  0  0  0  0  0  0  0  0  0  0
   -3.3460    2.5313    2.0854 S   0  0  0  0  0  6  0  0  0  0  0  0
   -3.8293    3.2653    0.9348 O   0  0  0  0  0  0  0  0  0  0  0  0
   -3.1165    3.2219    3.3418 O   0  0  0  0  0  0  0  0  0  0  0  0
   -1.8340    1.7663    1.6312 C   0  0  0  0  0  0  0  0  0  0  0  0
   -0.7505    1.9077    2.4736 C   0  0  0  0  0  0  0  0  0  0  0  0
    0.4644    1.3679    2.2341 N   0  0  0  0  0  0  0  0  0  0  0  0
    0.5902    0.6749    1.0985 C   0  0  0  0  0  0  0  0  0  0  0  0
    1.8557    0.1510    0.8877 N   0  0  0  0  0  0  0  0  0  0  0  0
    2.2253   -0.6477   -0.1637 C   0  0  0  0  0  0  0  0  0  0  0  0
    1.5041   -1.0856   -1.0511 O   0  0  0  0  0  0  0  0  0  0  0  0
    3.6636   -1.0425   -0.1832 C   0  0  0  0  0  0  0  0  0  0  0  0
    4.0019   -2.2934   -0.7142 C   0  0  0  0  0  0  0  0  0  0  0  0
    5.3374   -2.7018   -0.7656 C   0  0  0  0  0  0  0  0  0  0  0  0
    6.3540   -1.8588   -0.2959 C   0  0  0  0  0  0  0  0  0  0  0  0
    7.7142   -2.3128   -0.3639 C   0  0  0  0  0  0  0  0  0  0  0  0
    8.8067   -2.6967   -0.4223 N   0  0  0  0  0  0  0  0  0  0  0  0
    6.0224   -0.5971    0.2211 C   0  0  0  0  0  0  0  0  0  0  0  0
    7.0302    0.3056    0.7011 C   0  0  0  0  0  0  0  0  0  0  0  0
    7.8188    1.0543    1.1028 N   0  0  0  0  0  0  0  0  0  0  0  0
    4.6774   -0.1899    0.2734 C   0  0  0  0  0  0  0  0  0  0  0  0
   -0.4015    0.5033    0.2203 N   0  0  0  0  0  0  0  0  0  0  0  0
   -1.6207    1.0496    0.4702 C   0  0  0  0  0  0  0  0  0  0  0  0
   -2.6522    0.7880   -0.6090 C   0  0  2  0  0  0  0  0  0  0  0  0
   -2.8877   -0.7234   -0.7913 C   0  0  0  0  0  0  0  0  0  0  0  0
   -3.8438   -0.9825   -1.9536 C   0  0  0  0  0  0  0  0  0  0  0  0
   -3.3728   -0.2816   -3.2263 C   0  0  0  0  0  0  0  0  0  0  0  0
   -3.2092    1.1564   -3.0087 N   0  0  0  0  0  0  0  0  0  0  0  0
   -2.2260    1.4221   -1.9482 C   0  0  0  0  0  0  0  0  0  0  0  0
  2  1  1  0
  2  3  2  0
  2  4  2  0
  2  5  1  0
  5  6  2  0
  6  7  1  0
  7  8  2  0
  8  9  1  0
  9 10  1  0
 10 11  2  0
 10 12  1  0
 12 13  2  0
 13 14  1  0
 14 15  2  0
 15 16  1  0
 16 17  3  0
 15 18  1  0
 18 19  1  0
 19 20  3  0
 18 21  2  0
  8 22  1  0
 22 23  2  0
 24 23  1  1
 24 25  1  0
 25 26  1  0
 26 27  1  0
 27 28  1  0
 28 29  1  0
 23  5  1  0
 29 24  1  0
 21 12  1  0
M  END
>  <energy>  (169) 
-29.70

>  <full_id>  (169) 
MOL00006618-000116-04_1

>  <mol_id>  (169) 
MOL00006618-000116-04

>  <act_mol>  (169) 
0

>  <act_conf>  (169) 
0

$$$$
MOL00006849-000961-04
     RDKit          3D

 32 33  0  0  0  0  0  0  0  0999 V2000
    1.3345    1.7393   -4.1064 C   0  0  0  0  0  0  0  0  0  0  0  0
    1.1432    1.0777   -2.8634 O   0  0  0  0  0  0  0  0  0  0  0  0
    2.2660    0.7491   -2.1401 C   0  0  0  0  0  0  0  0  0  0  0  0
    3.5782    1.0648   -2.5108 C   0  0  0  0  0  0  0  0  0  0  0  0
    4.6634    0.6878   -1.7018 C   0  0  0  0  0  0  0  0  0  0  0  0
    6.0811    1.0245   -2.1234 C   0  0  2  0  0  0  0  0  0  0  0  0
    6.8375   -0.2233   -2.5783 C   0  0  0  0  0  0  0  0  0  0  0  0
    6.8133    1.6805   -1.0390 N   0  0  0  0  0  0  0  0  0  0  0  0
    4.4051   -0.0151   -0.5159 C   0  0  0  0  0  0  0  0  0  0  0  0
    3.0981   -0.3335   -0.1375 C   0  0  0  0  0  0  0  0  0  0  0  0
    2.0245    0.0443   -0.9426 C   0  0  0  0  0  0  0  0  0  0  0  0
    0.6818   -0.2407   -0.6271 N   0  0  0  0  0  0  0  0  0  0  0  0
    0.1754   -0.9203    0.4546 C   0  0  0  0  0  0  0  0  0  0  0  0
    0.7807   -1.4363    1.3804 O   0  0  0  0  0  0  0  0  0  0  0  0
   -1.3568   -1.0041    0.4230 C   0  0  0  0  0  0  0  0  0  0  0  0
   -2.0208   -1.6323    1.6293 C   0  0  0  0  0  0  0  0  0  0  0  0
   -2.4383   -0.5517    2.5858 C   0  0  0  0  0  0  0  0  0  0  0  0
   -1.4129   -0.0934    3.4044 O   0  0  0  0  0  0  0  0  0  0  0  0
   -1.6910    0.8847    4.3289 C   0  0  0  0  0  0  0  0  0  0  0  0
   -2.8911    1.4379    4.5200 C   0  0  0  0  0  0  0  0  0  0  0  0
   -4.0004    0.9689    3.6774 C   0  0  0  0  0  0  0  0  0  0  0  0
   -5.1403    1.4104    3.7746 O   0  0  0  0  0  0  0  0  0  0  0  0
   -3.6937   -0.0833    2.6726 C   0  0  0  0  0  0  0  0  0  0  0  0
   -4.7200   -0.5206    1.8528 O   0  0  0  0  0  0  0  0  0  0  0  0
   -1.9494   -0.5159   -0.6337 N   0  0  0  0  0  0  0  0  0  0  0  0
   -3.3105   -0.5229   -0.6951 N   0  0  0  0  0  0  0  0  0  0  0  0
   -3.9656   -0.0073   -1.7864 C   0  0  0  0  0  0  0  0  0  0  0  0
   -3.4566    0.4195   -2.8135 O   0  0  0  0  0  0  0  0  0  0  0  0
   -5.3032   -0.0324   -1.5570 O   0  0  0  0  0  0  0  0  0  0  0  0
   -6.0684    0.5004   -2.6460 C   0  0  0  0  0  0  0  0  0  0  0  0
   -7.5004    0.4482   -2.3180 C   0  0  0  0  0  0  0  0  0  0  0  0
   -8.6325    0.4094   -2.0616 N   0  0  0  0  0  0  0  0  0  0  0  0
  1  2  1  0
  2  3  1  0
  3  4  2  0
  4  5  1  0
  5  6  1  0
  6  7  1  1
  6  8  1  0
  5  9  2  0
  9 10  1  0
 10 11  2  0
 11 12  1  0
 12 13  1  0
 13 14  2  0
 13 15  1  0
 15 16  1  0
 16 17  1  0
 17 18  1  0
 18 19  1  0
 19 20  2  0
 20 21  1  0
 21 22  2  0
 21 23  1  0
 23 24  1  0
 15 25  2  0
 25 26  1  0
 26 27  1  0
 27 28  2  0
 27 29  1  0
 29 30  1  0
 30 31  1  0
 31 32  3  0
 11  3  1  0
 23 17  2  0
M  END
>  <energy>  (170) 
71.98

>  <full_id>  (170) 
MOL00006849-000961-04_1

>  <mol_id>  (170) 
MOL00006849-000961-04

>  <act_mol>  (170) 
0

>  <act_conf>  (170) 
0

$$$$
MOL00006994-001978-04
     RDKit          3D

 35 39  0  0  0  0  0  0  0  0999 V2000
   -4.7416    0.2727   -2.5230 N   0  0  0  0  0  0  0  0  0  0  0  0
   -4.1983   -0.5326   -1.8879 C   0  0  0  0  0  0  0  0  0  0  0  0
   -3.5274   -1.5173   -1.1063 C   0  0  0  0  0  0  0  0  0  0  0  0
   -3.4305   -2.8346   -1.5235 C   0  0  0  0  0  0  0  0  0  0  0  0
   -4.0360   -3.3057   -2.6870 N   0  0  0  0  0  0  0  0  0  0  0  0
   -2.7946   -3.7754   -0.8061 N   0  0  0  0  0  0  0  0  0  0  0  0
   -2.2222   -3.3815    0.3384 C   0  0  0  0  0  0  0  0  0  0  0  0
   -2.2367   -2.1373    0.8270 N   0  0  0  0  0  0  0  0  0  0  0  0
   -2.9158   -1.2238    0.1007 C   0  0  0  0  0  0  0  0  0  0  0  0
   -2.8827    0.1028    0.7020 C   0  0  0  0  0  0  0  0  0  0  0  0
   -1.8090    0.9391    0.9629 C   0  0  0  0  0  0  0  0  0  0  0  0
   -0.5163    0.6215    0.7304 N   0  0  0  0  0  0  0  0  0  0  0  0
    0.6035    1.3652    0.8698 C   0  0  0  0  0  0  0  0  0  0  0  0
    0.6797    2.7370    1.2004 C   0  0  0  0  0  0  0  0  0  0  0  0
    2.0182    3.0401    1.2158 C   0  0  0  0  0  0  0  0  0  0  0  0
    2.6831    1.8803    0.9032 N   0  0  0  0  0  0  0  0  0  0  0  0
    4.0824    1.6830    0.7978 C   0  0  0  0  0  0  0  0  0  0  0  0
    4.8416    2.6187    0.9955 O   0  0  0  0  0  0  0  0  0  0  0  0
    4.3403    0.3695    0.4663 N   0  0  0  0  0  0  0  0  0  0  0  0
    5.5907   -0.2364    0.2668 C   0  0  0  0  0  0  0  0  0  0  0  0
    6.8077    0.4461    0.3818 C   0  0  0  0  0  0  0  0  0  0  0  0
    8.0189   -0.2224    0.1685 C   0  0  0  0  0  0  0  0  0  0  0  0
    8.0113   -1.5719   -0.1594 C   0  0  0  0  0  0  0  0  0  0  0  0
    9.1724   -2.2085   -0.3630 F   0  0  0  0  0  0  0  0  0  0  0  0
    6.8081   -2.2540   -0.2748 C   0  0  0  0  0  0  0  0  0  0  0  0
    6.7981   -3.5564   -0.5913 F   0  0  0  0  0  0  0  0  0  0  0  0
    5.5987   -1.5964   -0.0642 C   0  0  0  0  0  0  0  0  0  0  0  0
    1.8192    0.8400    0.6778 N   0  0  0  0  0  0  0  0  0  0  0  0
   -2.2136    2.1360    1.4784 N   0  0  0  0  0  0  0  0  0  0  0  0
   -3.5177    2.0392    1.6038 C   0  0  0  0  0  0  0  0  0  0  0  0
   -4.4768    2.9645    2.1047 C   0  0  0  0  0  0  0  0  0  0  0  0
   -5.7740    2.6110    2.1779 C   0  0  0  0  0  0  0  0  0  0  0  0
   -6.2256    1.2950    1.7583 C   0  0  0  0  0  0  0  0  0  0  0  0
   -5.3283    0.4218    1.2703 C   0  0  0  0  0  0  0  0  0  0  0  0
   -3.9832    0.7967    1.1784 N   0  0  0  0  0  0  0  0  0  0  0  0
  1  2  3  0
  2  3  1  0
  3  4  2  0
  4  5  1  0
  4  6  1  0
  6  7  2  0
  7  8  1  0
  8  9  2  0
  9 10  1  0
 10 11  2  0
 11 12  1  0
 12 13  1  0
 13 14  1  0
 14 15  2  0
 15 16  1  0
 16 17  1  0
 17 18  2  0
 17 19  1  0
 19 20  1  0
 20 21  2  0
 21 22  1  0
 22 23  2  0
 23 24  1  0
 23 25  1  0
 25 26  1  0
 25 27  2  0
 16 28  1  0
 11 29  1  0
 29 30  2  0
 30 31  1  0
 31 32  2  0
 32 33  1  0
 33 34  2  0
 34 35  1  0
  9  3  1  0
 35 10  1  0
 28 13  2  0
 35 30  1  0
 27 20  1  0
M  END
>  <energy>  (171) 
-31.25

>  <full_id>  (171) 
MOL00006994-001978-04_1

>  <mol_id>  (171) 
MOL00006994-001978-04

>  <act_mol>  (171) 
0

>  <act_conf>  (171) 
0

$$$$
MOL00006943-000713-03
     RDKit          3D

 32 37  0  0  0  0  0  0  0  0999 V2000
   -2.8774   -2.3001   -1.4951 C   0  0  0  0  0  0  0  0  0  0  0  0
   -2.6042   -1.0343   -2.1813 N   0  0  0  0  0  0  0  0  0  0  0  0
   -3.6353   -0.3111   -2.8096 C   0  0  0  0  0  0  0  0  0  0  0  0
   -3.4983    0.7870   -3.3591 O   0  0  0  0  0  0  0  0  0  0  0  0
   -5.0479   -0.9309   -2.8101 C   0  0  0  0  0  0  0  0  0  0  0  0
   -5.6011   -1.2955   -1.5570 O   0  0  0  0  0  0  0  0  0  0  0  0
   -5.9696   -0.3012   -0.6953 C   0  0  0  0  0  0  0  0  0  0  0  0
   -5.9312    1.0715   -0.9479 C   0  0  0  0  0  0  0  0  0  0  0  0
   -6.3334    1.9813    0.0367 C   0  0  0  0  0  0  0  0  0  0  0  0
   -6.7768    1.5125    1.2685 C   0  0  0  0  0  0  0  0  0  0  0  0
   -7.1732    2.3661    2.2546 O   0  0  0  0  0  0  0  0  0  0  0  0
   -6.8252    0.1509    1.5316 C   0  0  0  0  0  0  0  0  0  0  0  0
   -6.4221   -0.7536    0.5484 C   0  0  0  0  0  0  0  0  0  0  0  0
   -1.2633   -0.5035   -2.0628 C   0  0  0  0  0  0  0  0  0  0  0  0
   -0.7413    0.4083   -2.9976 C   0  0  0  0  0  0  0  0  0  0  0  0
    0.5611    0.9301   -2.9123 C   0  0  0  0  0  0  0  0  0  0  0  0
    1.3373    0.4951   -1.8439 C   0  0  0  0  0  0  0  0  0  0  0  0
    2.6158    0.7791   -1.4473 N   0  0  0  0  0  0  0  0  0  0  0  0
    2.8792    0.0663   -0.3081 C   0  0  0  0  0  0  0  0  0  0  0  0
    4.2489    0.1492    0.4294 C   0  0  0  0  0  0  0  0  0  0  0  0
    5.2460    0.9263   -0.0268 N   0  0  0  0  0  0  0  0  0  0  0  0
    6.2378    0.7321    0.8660 N   0  0  0  0  0  0  0  0  0  0  0  0
    5.8986   -0.1299    1.8623 C   0  0  0  0  0  0  0  0  0  0  0  0
    4.6074   -0.5353    1.6076 C   0  0  0  0  0  0  0  0  0  0  0  0
    3.8511   -1.4888    2.4634 C   0  0  0  0  0  0  0  0  0  0  0  0
    4.6730   -2.0608    3.6065 C   0  0  1  0  0  0  0  0  0  0  0  0
    5.8371   -2.9799    3.3183 C   0  0  0  0  0  0  0  0  0  0  0  0
    6.1064   -1.5986    3.8680 C   0  0  1  0  0  0  0  0  0  0  0  0
    6.7598   -0.5448    2.9971 C   0  0  0  0  0  0  0  0  0  0  0  0
    1.8425   -0.6639    0.0517 N   0  0  0  0  0  0  0  0  0  0  0  0
    0.8790   -0.4070   -0.8944 C   0  0  0  0  0  0  0  0  0  0  0  0
   -0.4275   -0.9130   -1.0029 C   0  0  0  0  0  0  0  0  0  0  0  0
  1  2  1  0
  2  3  1  0
  3  4  2  0
  3  5  1  0
  5  6  1  0
  6  7  1  0
  7  8  2  0
  8  9  1  0
  9 10  2  0
 10 11  1  0
 10 12  1  0
 12 13  2  0
  2 14  1  0
 14 15  2  0
 15 16  1  0
 16 17  2  0
 17 18  1  0
 18 19  1  0
 19 20  1  0
 20 21  2  0
 21 22  1  0
 22 23  1  0
 23 24  2  0
 24 25  1  0
 26 25  1  6
 26 27  1  0
 28 27  1  6
 28 29  1  0
 19 30  2  0
 30 31  1  0
 31 32  2  0
 13  7  1  0
 32 14  1  0
 31 17  1  0
 24 20  1  0
 28 26  1  0
 29 23  1  0
M  END
>  <energy>  (172) 
86.40

>  <full_id>  (172) 
MOL00006943-000713-03_1

>  <mol_id>  (172) 
MOL00006943-000713-03

>  <act_mol>  (172) 
0

>  <act_conf>  (172) 
0

$$$$
MOL00007147-000001-04
     RDKit          3D

 29 32  0  0  0  0  0  0  0  0999 V2000
    2.6759   -2.2424   -1.8874 O   0  0  0  0  0  0  0  0  0  0  0  0
    3.1308   -1.1668   -1.5159 C   0  0  0  0  0  0  0  0  0  0  0  0
    2.3418   -0.0912   -1.1522 N   0  0  0  0  0  0  0  0  0  0  0  0
    0.8871   -0.2134   -1.0793 C   0  0  1  0  0  0  0  0  0  0  0  0
    0.4535   -0.8274    0.2560 C   0  0  0  0  0  0  0  0  0  0  0  0
    0.5798    0.1439    1.4343 C   0  0  0  0  0  0  0  0  0  0  0  0
   -0.0238    1.5402    1.1913 C   0  0  2  0  0  0  0  0  0  0  0  0
   -1.4873    1.6093    1.3538 N   0  0  0  0  0  0  0  0  0  0  0  0
   -2.2195    0.5118    0.9712 N   0  0  0  0  0  0  0  0  0  0  0  0
   -3.5131    0.5687    1.0587 C   0  0  0  0  0  0  0  0  0  0  0  0
   -4.2659   -0.6395    0.6654 C   0  0  0  0  0  0  0  0  0  0  0  0
   -4.0977   -1.1747   -0.6114 C   0  0  0  0  0  0  0  0  0  0  0  0
   -4.7858   -2.3345   -0.9546 C   0  0  0  0  0  0  0  0  0  0  0  0
   -5.6036   -2.9218   -0.0006 C   0  0  0  0  0  0  0  0  0  0  0  0
   -5.7692   -2.4372    1.2504 N   0  0  0  0  0  0  0  0  0  0  0  0
   -5.0862   -1.3104    1.5619 C   0  0  0  0  0  0  0  0  0  0  0  0
   -4.2586    1.7721    1.5032 C   0  0  0  0  0  0  0  0  0  0  0  0
   -5.9732    1.8437    1.5011 Cl  0  0  0  0  0  0  0  0  0  0  0  0
   -3.5346    2.8370    1.8438 C   0  0  0  0  0  0  0  0  0  0  0  0
   -2.0642    2.8072    1.7670 C   0  0  0  0  0  0  0  0  0  0  0  0
   -1.4403    3.8264    2.0545 O   0  0  0  0  0  0  0  0  0  0  0  0
    0.4117    2.1189   -0.1637 C   0  0  0  0  0  0  0  0  0  0  0  0
    0.2138    1.1408   -1.3214 C   0  0  0  0  0  0  0  0  0  0  0  0
    4.5987   -0.9853   -1.4051 C   0  0  0  0  0  0  0  0  0  0  0  0
    5.2287    0.2625   -1.3995 C   0  0  0  0  0  0  0  0  0  0  0  0
    6.6169    0.3270   -1.2810 C   0  0  0  0  0  0  0  0  0  0  0  0
    7.3288   -0.8585   -1.1811 C   0  0  0  0  0  0  0  0  0  0  0  0
    6.7543   -2.0796   -1.2000 N   0  0  0  0  0  0  0  0  0  0  0  0
    5.4024   -2.1165   -1.3191 C   0  0  0  0  0  0  0  0  0  0  0  0
  1  2  2  0
  2  3  1  0
  4  3  1  1
  4  5  1  0
  5  6  1  0
  6  7  1  0
  7  8  1  6
  8  9  1  0
  9 10  2  0
 10 11  1  0
 11 12  2  0
 12 13  1  0
 13 14  2  0
 14 15  1  0
 15 16  2  0
 10 17  1  0
 17 18  1  0
 17 19  2  0
 19 20  1  0
 20 21  2  0
  7 22  1  0
 22 23  1  0
  2 24  1  0
 24 25  2  0
 25 26  1  0
 26 27  2  0
 27 28  1  0
 28 29  2  0
 23  4  1  0
 29 24  1  0
 20  8  1  0
 16 11  1  0
M  END
>  <energy>  (173) 
80.55

>  <full_id>  (173) 
MOL00007147-000001-04_1

>  <mol_id>  (173) 
MOL00007147-000001-04

>  <act_mol>  (173) 
0

>  <act_conf>  (173) 
0

$$$$
MOL00006875-001327-02
     RDKit          3D

 35 39  0  0  0  0  0  0  0  0999 V2000
    4.1220   -0.7114   -3.1733 O   0  0  0  0  0  0  0  0  0  0  0  0
    4.3090   -1.5382   -2.2874 C   0  0  0  0  0  0  0  0  0  0  0  0
    3.4148   -2.7404   -2.0637 C   0  0  0  0  0  0  0  0  0  0  0  0
    1.9819   -2.4643   -2.4993 C   0  0  0  0  0  0  0  0  0  0  0  0
    1.3353   -1.7312   -1.4548 O   0  0  0  0  0  0  0  0  0  0  0  0
    0.0004   -1.4669   -1.6078 C   0  0  0  0  0  0  0  0  0  0  0  0
   -0.7657   -1.7568   -2.7370 C   0  0  0  0  0  0  0  0  0  0  0  0
   -2.1326   -1.4490   -2.7858 C   0  0  0  0  0  0  0  0  0  0  0  0
   -2.7011   -0.8399   -1.6628 C   0  0  0  0  0  0  0  0  0  0  0  0
   -3.9909   -0.4345   -1.4256 N   0  0  0  0  0  0  0  0  0  0  0  0
   -4.1206    0.1235   -0.1687 C   0  0  0  0  0  0  0  0  0  0  0  0
   -5.3941    0.6173    0.3119 C   0  0  0  0  0  0  0  0  0  0  0  0
   -6.4181    0.5148   -0.4882 N   0  0  0  0  0  0  0  0  0  0  0  0
   -7.6735    0.9810   -0.0498 C   0  0  0  0  0  0  0  0  0  0  0  0
   -8.7887    0.8831   -0.8883 C   0  0  0  0  0  0  0  0  0  0  0  0
   -8.6655    0.3476   -2.1120 F   0  0  0  0  0  0  0  0  0  0  0  0
  -10.0455    1.3321   -0.4842 C   0  0  0  0  0  0  0  0  0  0  0  0
  -10.2071    1.8926    0.7812 C   0  0  0  0  0  0  0  0  0  0  0  0
   -9.1102    2.0029    1.6368 C   0  0  0  0  0  0  0  0  0  0  0  0
   -7.8561    1.5489    1.2188 C   0  0  0  0  0  0  0  0  0  0  0  0
   -6.7617    1.6616    2.0789 N   0  0  0  0  0  0  0  0  0  0  0  0
   -5.5040    1.2324    1.7222 C   0  0  0  0  0  0  0  0  0  0  0  0
   -4.5554    1.3409    2.4849 O   0  0  0  0  0  0  0  0  0  0  0  0
   -2.8609    0.0729    0.4029 C   0  0  0  0  0  0  0  0  0  0  0  0
   -1.9652   -0.5311   -0.5238 C   0  0  0  0  0  0  0  0  0  0  0  0
   -0.5937   -0.8471   -0.4993 C   0  0  0  0  0  0  0  0  0  0  0  0
    5.4074   -1.5140   -1.4507 N   0  0  0  0  0  0  0  0  0  0  0  0
    6.2699   -0.3451   -1.4077 C   0  0  0  0  0  0  0  0  0  0  0  0
    5.7146    0.7239   -0.4470 C   0  0  0  0  0  0  0  0  0  0  0  0
    5.4663    0.1989    0.9156 N   0  0  0  0  0  0  0  0  0  0  0  0
    4.6145    1.1398    1.6747 C   0  0  0  0  0  0  0  0  0  0  0  0
    4.3840    0.6841    3.1325 C   0  0  0  0  0  0  0  0  0  0  0  0
    5.6406    0.4658    3.8713 N   0  0  0  0  0  0  0  0  0  0  0  0
    6.4697   -0.4881    3.1148 C   0  0  0  0  0  0  0  0  0  0  0  0
    6.7221   -0.0470    1.6540 C   0  0  0  0  0  0  0  0  0  0  0  0
  1  2  2  0
  2  3  1  0
  3  4  1  0
  4  5  1  0
  5  6  1  0
  6  7  2  0
  7  8  1  0
  8  9  2  0
  9 10  1  0
 10 11  1  0
 11 12  1  0
 12 13  2  0
 13 14  1  0
 14 15  2  0
 15 16  1  0
 15 17  1  0
 17 18  2  0
 18 19  1  0
 19 20  2  0
 20 21  1  0
 21 22  1  0
 22 23  2  0
 11 24  2  0
 24 25  1  0
 25 26  2  0
  2 27  1  0
 27 28  1  0
 28 29  1  0
 29 30  1  0
 30 31  1  0
 31 32  1  0
 32 33  1  0
 33 34  1  0
 34 35  1  0
 26  6  1  0
 35 30  1  0
 25  9  1  0
 22 12  1  0
 20 14  1  0
M  END
>  <energy>  (174) 
155.54

>  <full_id>  (174) 
MOL00006875-001327-02_1

>  <mol_id>  (174) 
MOL00006875-001327-02

>  <act_mol>  (174) 
0

>  <act_conf>  (174) 
0

$$$$
MOL00006706-000771-02
     RDKit          3D

 37 41  0  0  0  0  0  0  0  0999 V2000
    9.2771    1.6139    3.2960 C   0  0  0  0  0  0  0  0  0  0  0  0
    9.3960    0.3838    2.4496 C   0  0  0  0  0  0  0  0  0  0  0  0
   10.4380   -0.2278    2.2612 O   0  0  0  0  0  0  0  0  0  0  0  0
    8.1838    0.0561    1.9322 O   0  0  0  0  0  0  0  0  0  0  0  0
    8.2083   -1.1113    1.1079 C   0  0  0  0  0  0  0  0  0  0  0  0
    6.8091   -1.3507    0.5994 C   0  0  0  0  0  0  0  0  0  0  0  0
    6.3820   -0.7524   -0.6057 C   0  0  0  0  0  0  0  0  0  0  0  0
    5.0833   -0.9429   -1.0844 C   0  0  0  0  0  0  0  0  0  0  0  0
    4.2190   -1.7379   -0.3492 C   0  0  0  0  0  0  0  0  0  0  0  0
    4.6294   -2.3242    0.8532 C   0  0  0  0  0  0  0  0  0  0  0  0
    5.9109   -2.1323    1.3435 C   0  0  0  0  0  0  0  0  0  0  0  0
    3.5025   -3.0760    1.4879 C   0  0  0  0  0  0  0  0  0  0  0  0
    2.5468   -3.2538    0.2986 C   0  0  0  0  0  0  0  0  0  0  0  0
    2.7779   -2.0583   -0.6479 C   0  0  1  0  0  0  0  0  0  0  0  0
    1.9506   -0.9243   -0.2979 N   0  0  0  0  0  0  0  0  0  0  0  0
    0.6523   -0.8542   -0.6598 C   0  0  0  0  0  0  0  0  0  0  0  0
    0.0338   -1.6661   -1.5257 N   0  0  0  0  0  0  0  0  0  0  0  0
   -1.2297   -1.1995   -1.5641 N   0  0  0  0  0  0  0  0  0  0  0  0
   -1.4458   -0.1307   -0.7495 C   0  0  0  0  0  0  0  0  0  0  0  0
   -2.5438    0.6481   -0.4688 C   0  0  0  0  0  0  0  0  0  0  0  0
   -3.8643    0.4108   -1.1041 C   0  0  0  0  0  0  0  0  0  0  0  0
   -3.9684   -0.5135   -1.9050 O   0  0  0  0  0  0  0  0  0  0  0  0
   -4.8408    1.2975   -0.7041 N   0  0  0  0  0  0  0  0  0  0  0  0
   -6.2044    1.3504   -1.0799 C   0  0  0  0  0  0  0  0  0  0  0  0
   -6.7757    0.3949   -1.9321 C   0  0  0  0  0  0  0  0  0  0  0  0
   -8.1332    0.4474   -2.2879 C   0  0  0  0  0  0  0  0  0  0  0  0
   -8.7234   -0.6138   -3.1709 C   0  0  0  0  0  0  0  0  0  0  0  0
   -8.9409    1.4540   -1.7573 C   0  0  0  0  0  0  0  0  0  0  0  0
   -8.3930    2.4194   -0.9131 C   0  0  0  0  0  0  0  0  0  0  0  0
   -7.0265    2.3883   -0.5846 C   0  0  0  0  0  0  0  0  0  0  0  0
   -6.4652    3.4530    0.2991 C   0  0  0  0  0  0  0  0  0  0  0  0
   -7.0939    4.6693    0.3091 N   0  0  0  0  0  0  0  0  0  0  0  0
   -5.4498    3.2787    0.9632 O   0  0  0  0  0  0  0  0  0  0  0  0
   -2.4069    1.6651    0.4156 N   0  0  0  0  0  0  0  0  0  0  0  0
   -1.1932    1.8419    0.9720 C   0  0  0  0  0  0  0  0  0  0  0  0
   -0.0732    1.1315    0.7582 N   0  0  0  0  0  0  0  0  0  0  0  0
   -0.2405    0.1278   -0.1367 C   0  0  0  0  0  0  0  0  0  0  0  0
  1  2  1  0
  2  3  2  0
  2  4  1  0
  4  5  1  0
  5  6  1  0
  6  7  2  0
  7  8  1  0
  8  9  2  0
  9 10  1  0
 10 11  2  0
 10 12  1  0
 12 13  1  0
 13 14  1  0
 14 15  1  1
 15 16  1  0
 16 17  2  0
 17 18  1  0
 18 19  1  0
 19 20  2  0
 20 21  1  0
 21 22  2  0
 21 23  1  0
 23 24  1  0
 24 25  2  0
 25 26  1  0
 26 27  1  0
 26 28  2  0
 28 29  1  0
 29 30  2  0
 30 31  1  0
 31 32  1  0
 31 33  2  0
 20 34  1  0
 34 35  2  0
 35 36  1  0
 36 37  2  0
 11  6  1  0
 37 16  1  0
 14  9  1  0
 37 19  1  0
 30 24  1  0
M  END
>  <energy>  (175) 
-5.84

>  <full_id>  (175) 
MOL00006706-000771-02_1

>  <mol_id>  (175) 
MOL00006706-000771-02

>  <act_mol>  (175) 
0

>  <act_conf>  (175) 
0

$$$$
MOL00007082-000716-03
     RDKit          3D

 35 38  0  0  0  0  0  0  0  0999 V2000
   -1.9689    5.6830    0.2857 C   0  0  0  0  0  0  0  0  0  0  0  0
   -1.7353    4.4630   -0.5705 C   0  0  0  0  0  0  0  0  0  0  0  0
   -0.9251    4.5166   -1.4972 O   0  0  0  0  0  0  0  0  0  0  0  0
   -2.4399    3.3088   -0.2536 N   0  0  0  0  0  0  0  0  0  0  0  0
   -3.3885    3.1980    0.8653 C   0  0  0  0  0  0  0  0  0  0  0  0
   -4.8304    3.5881    0.5029 C   0  0  0  0  0  0  0  0  0  0  0  0
   -5.5586    2.5545   -0.3216 C   0  0  0  0  0  0  0  0  0  0  0  0
   -5.9818    1.3503    0.2589 C   0  0  0  0  0  0  0  0  0  0  0  0
   -6.6393    0.3878   -0.5085 C   0  0  0  0  0  0  0  0  0  0  0  0
   -6.8821    0.6199   -1.8607 C   0  0  0  0  0  0  0  0  0  0  0  0
   -6.4700    1.8152   -2.4467 C   0  0  0  0  0  0  0  0  0  0  0  0
   -5.8123    2.7794   -1.6815 C   0  0  0  0  0  0  0  0  0  0  0  0
   -2.1977    2.1093   -1.0589 C   0  0  0  0  0  0  0  0  0  0  0  0
   -1.2988    1.1167   -0.3539 C   0  0  0  0  0  0  0  0  0  0  0  0
    0.0607    1.4026   -0.1592 C   0  0  0  0  0  0  0  0  0  0  0  0
    0.8926    0.4952    0.5023 C   0  0  0  0  0  0  0  0  0  0  0  0
    0.3718   -0.7183    0.9683 C   0  0  0  0  0  0  0  0  0  0  0  0
    1.2169   -1.7199    1.6779 C   0  0  0  0  0  0  0  0  0  0  0  0
    0.6994   -2.4348    2.5260 O   0  0  0  0  0  0  0  0  0  0  0  0
    2.5299   -1.7786    1.2589 N   0  0  0  0  0  0  0  0  0  0  0  0
    3.5078   -2.6180    1.7663 C   0  0  0  0  0  0  0  0  0  0  0  0
    3.3979   -3.2909    2.7860 O   0  0  0  0  0  0  0  0  0  0  0  0
    4.7274   -2.5816    0.9816 C   0  0  0  0  0  0  0  0  0  0  0  0
    4.7929   -1.7366   -0.1016 O   0  0  0  0  0  0  0  0  0  0  0  0
    6.0310   -1.8818   -0.6513 C   0  0  0  0  0  0  0  0  0  0  0  0
    6.4972   -1.1972   -1.7696 C   0  0  0  0  0  0  0  0  0  0  0  0
    7.7983   -1.4969   -2.1676 C   0  0  0  0  0  0  0  0  0  0  0  0
    8.3079   -0.8715   -3.2378 F   0  0  0  0  0  0  0  0  0  0  0  0
    8.5869   -2.4250   -1.4911 C   0  0  0  0  0  0  0  0  0  0  0  0
    8.0883   -3.0986   -0.3678 C   0  0  0  0  0  0  0  0  0  0  0  0
    6.7765   -2.8162    0.0618 C   0  0  0  0  0  0  0  0  0  0  0  0
    5.9257   -3.2588    1.1076 C   0  0  0  0  0  0  0  0  0  0  0  0
    6.2265   -4.1733    2.0492 N   0  0  0  0  0  0  0  0  0  0  0  0
   -0.9873   -1.0028    0.7901 C   0  0  0  0  0  0  0  0  0  0  0  0
   -1.8158   -0.0938    0.1284 C   0  0  0  0  0  0  0  0  0  0  0  0
  1  2  1  0
  2  3  2  0
  2  4  1  0
  4  5  1  0
  5  6  1  0
  6  7  1  0
  7  8  2  0
  8  9  1  0
  9 10  2  0
 10 11  1  0
 11 12  2  0
  4 13  1  0
 13 14  1  0
 14 15  2  0
 15 16  1  0
 16 17  2  0
 17 18  1  0
 18 19  2  0
 18 20  1  0
 20 21  1  0
 21 22  2  0
 21 23  1  0
 23 24  1  0
 24 25  1  0
 25 26  2  0
 26 27  1  0
 27 28  1  0
 27 29  2  0
 29 30  1  0
 30 31  2  0
 31 32  1  0
 32 33  1  0
 17 34  1  0
 34 35  2  0
 12  7  1  0
 35 14  1  0
 32 23  2  0
 31 25  1  0
M  END
>  <energy>  (176) 
31.69

>  <full_id>  (176) 
MOL00007082-000716-03_1

>  <mol_id>  (176) 
MOL00007082-000716-03

>  <act_mol>  (176) 
0

>  <act_conf>  (176) 
0

$$$$
MOL00007317-000104-04
     RDKit          3D

 30 31  0  0  0  0  0  0  0  0999 V2000
   -6.5413    1.3967   -4.0242 C   0  0  0  0  0  0  0  0  0  0  0  0
   -6.3203    0.1374   -3.2007 C   0  0  0  0  0  0  0  0  0  0  0  0
   -5.2104   -0.7313   -3.7966 C   0  0  0  0  0  0  0  0  0  0  0  0
   -5.0085   -2.0373   -3.0268 C   0  0  0  0  0  0  0  0  0  0  0  0
   -4.5272   -1.8322   -1.6741 N   0  0  0  0  0  0  0  0  0  0  0  0
   -3.1968   -1.5477   -1.4268 C   0  0  0  0  0  0  0  0  0  0  0  0
   -2.3595   -1.5104   -2.3184 O   0  0  0  0  0  0  0  0  0  0  0  0
   -2.9794   -1.3468   -0.0923 N   0  0  0  0  0  0  0  0  0  0  0  0
   -1.7670   -1.0060    0.4923 C   0  0  0  0  0  0  0  0  0  0  0  0
   -0.7082   -0.7050   -0.2419 N   0  0  0  0  0  0  0  0  0  0  0  0
    0.4003   -0.3838    0.4108 C   0  0  0  0  0  0  0  0  0  0  0  0
    1.4953   -0.1110   -0.4044 N   0  0  0  0  0  0  0  0  0  0  0  0
    2.7768    0.3981   -0.1750 C   0  0  0  0  0  0  0  0  0  0  0  0
    3.7165    0.3403   -1.2157 C   0  0  0  0  0  0  0  0  0  0  0  0
    5.0294    0.7915   -1.0417 C   0  0  0  0  0  0  0  0  0  0  0  0
    5.4406    1.3097    0.1890 C   0  0  0  0  0  0  0  0  0  0  0  0
    6.8623    1.7779    0.3938 C   0  0  0  0  0  0  0  0  0  0  0  0
    7.8337    0.6181    0.6128 C   0  0  0  0  0  0  0  0  0  0  0  0
    7.6075   -0.0123    1.8702 O   0  0  0  0  0  0  0  0  0  0  0  0
    4.5154    1.3640    1.2356 C   0  0  0  0  0  0  0  0  0  0  0  0
    3.2042    0.9079    1.0531 C   0  0  0  0  0  0  0  0  0  0  0  0
    0.4846   -0.3598    1.7346 N   0  0  0  0  0  0  0  0  0  0  0  0
   -0.6339   -0.6692    2.3732 C   0  0  0  0  0  0  0  0  0  0  0  0
   -0.6436   -0.7075    3.7507 O   0  0  0  0  0  0  0  0  0  0  0  0
    0.5341   -0.1732    4.3664 C   0  0  0  0  0  0  0  0  0  0  0  0
    0.5143    1.3441    4.4783 C   0  0  0  0  0  0  0  0  0  0  0  0
    0.4707    1.9636    3.2819 F   0  0  0  0  0  0  0  0  0  0  0  0
    1.6277    1.7799    5.1161 F   0  0  0  0  0  0  0  0  0  0  0  0
   -0.5494    1.7668    5.1992 F   0  0  0  0  0  0  0  0  0  0  0  0
   -1.7874   -1.0000    1.8157 N   0  0  0  0  0  0  0  0  0  0  0  0
  1  2  1  0
  2  3  1  0
  3  4  1  0
  4  5  1  0
  5  6  1  0
  6  7  2  0
  6  8  1  0
  8  9  1  0
  9 10  2  0
 10 11  1  0
 11 12  1  0
 12 13  1  0
 13 14  2  0
 14 15  1  0
 15 16  2  0
 16 17  1  0
 17 18  1  0
 18 19  1  0
 16 20  1  0
 20 21  2  0
 11 22  2  0
 22 23  1  0
 23 24  1  0
 24 25  1  0
 25 26  1  0
 26 27  1  0
 26 28  1  0
 26 29  1  0
 23 30  2  0
 30  9  1  0
 21 13  1  0
M  END
>  <energy>  (177) 
-249.04

>  <full_id>  (177) 
MOL00007317-000104-04_1

>  <mol_id>  (177) 
MOL00007317-000104-04

>  <act_mol>  (177) 
0

>  <act_conf>  (177) 
0

$$$$
MOL00007379-003243-02
     RDKit          3D

 26 29  0  0  0  0  0  0  0  0999 V2000
   -5.7085   -2.7205   -1.9270 N   0  0  0  0  0  0  0  0  0  0  0  0
   -5.1155   -1.5136   -2.4950 C   0  0  0  0  0  0  0  0  0  0  0  0
   -4.0950   -0.9384   -1.5622 C   0  0  0  0  0  0  0  0  0  0  0  0
   -2.7286   -1.1303   -1.5698 C   0  0  0  0  0  0  0  0  0  0  0  0
   -2.0762   -0.4168   -0.5246 C   0  0  0  0  0  0  0  0  0  0  0  0
   -2.9603    0.3005    0.2600 C   0  0  0  0  0  0  0  0  0  0  0  0
   -2.6776    1.1804    1.4421 C   0  0  2  0  0  0  0  0  0  0  0  0
   -1.9851    2.4871    1.0616 C   0  0  0  0  0  0  0  0  0  0  0  0
   -0.8361    2.6411    2.0493 C   0  0  2  0  0  0  0  0  0  0  0  0
    0.5245    2.4360    1.3499 C   0  0  0  0  0  0  0  0  0  0  0  0
    1.0936    3.3746    0.7981 O   0  0  0  0  0  0  0  0  0  0  0  0
    0.9368    1.1176    1.3614 N   0  0  0  0  0  0  0  0  0  0  0  0
    2.0674    0.5402    0.7690 C   0  0  0  0  0  0  0  0  0  0  0  0
    2.9972    1.2503    0.0132 C   0  0  0  0  0  0  0  0  0  0  0  0
    4.0999    0.6003   -0.5589 C   0  0  0  0  0  0  0  0  0  0  0  0
    4.2840   -0.7775   -0.3832 C   0  0  0  0  0  0  0  0  0  0  0  0
    5.3976   -1.4379   -0.9690 N   0  0  0  0  0  0  0  0  0  0  0  0
    6.4078   -0.8932   -1.7236 C   0  0  0  0  0  0  0  0  0  0  0  0
    7.2577   -1.8222   -2.0985 N   0  0  0  0  0  0  0  0  0  0  0  0
    6.8157   -3.0148   -1.5912 N   0  0  0  0  0  0  0  0  0  0  0  0
    5.7121   -2.7744   -0.9209 C   0  0  0  0  0  0  0  0  0  0  0  0
    3.3503   -1.4916    0.3785 C   0  0  0  0  0  0  0  0  0  0  0  0
    2.2533   -0.8331    0.9485 C   0  0  0  0  0  0  0  0  0  0  0  0
   -1.0638    1.5944    3.0822 N   0  0  0  0  0  0  0  0  0  0  0  0
   -1.7521    0.5279    2.3831 N   0  0  0  0  0  0  0  0  0  0  0  0
   -4.5725    0.1018   -0.2888 S   0  0  0  0  0  0  0  0  0  0  0  0
  1  2  1  0
  2  3  1  0
  3  4  2  0
  4  5  1  0
  5  6  2  0
  7  6  1  6
  7  8  1  0
  8  9  1  0
  9 10  1  6
 10 11  2  0
 10 12  1  0
 12 13  1  0
 13 14  2  0
 14 15  1  0
 15 16  2  0
 16 17  1  0
 17 18  1  0
 18 19  2  0
 19 20  1  0
 20 21  2  0
 16 22  1  0
 22 23  2  0
  9 24  1  0
 24 25  1  0
  6 26  1  0
 26  3  1  0
 25  7  1  0
 23 13  1  0
 21 17  1  0
M  END
>  <energy>  (178) 
84.78

>  <full_id>  (178) 
MOL00007379-003243-02_1

>  <mol_id>  (178) 
MOL00007379-003243-02

>  <act_mol>  (178) 
0

>  <act_conf>  (178) 
0

$$$$
MOL00007502-001664-03
     RDKit          3D

 28 30  0  0  0  0  0  0  0  0999 V2000
   -5.1863    0.0932   -1.8362 C   0  0  0  0  0  0  0  0  0  0  0  0
   -4.1748    0.1490   -0.7087 C   0  0  0  0  0  0  0  0  0  0  0  0
   -4.4990    0.1998    0.5540 N   0  0  0  0  0  0  0  0  0  0  0  0
   -5.8696    0.2199    0.7727 N   0  0  0  0  0  0  0  0  0  0  0  0
   -6.2647   -0.1399    1.9597 C   0  0  0  0  0  0  0  0  0  0  0  0
   -7.5949   -0.0630    2.2530 N   0  0  0  0  0  0  0  0  0  0  0  0
   -5.5559   -0.5909    3.0535 N   0  0  0  0  0  0  0  0  0  0  0  0
   -4.3408   -1.2130    2.7347 O   0  0  0  0  0  0  0  0  0  0  0  0
   -2.7252    0.1498   -1.0519 C   0  0  0  0  0  0  0  0  0  0  0  0
   -2.2556   -0.5901   -2.1437 C   0  0  0  0  0  0  0  0  0  0  0  0
   -0.8916   -0.5904   -2.4520 C   0  0  0  0  0  0  0  0  0  0  0  0
    0.0124    0.1365   -1.6657 C   0  0  0  0  0  0  0  0  0  0  0  0
    1.4488    0.1204   -2.0442 C   0  0  0  0  0  0  0  0  0  0  0  0
    1.7210    0.1886   -3.2420 O   0  0  0  0  0  0  0  0  0  0  0  0
    2.4824    0.0100   -1.0342 C   0  0  0  0  0  0  0  0  0  0  0  0
    2.4464   -0.3107    0.3124 C   0  0  0  0  0  0  0  0  0  0  0  0
    3.7770   -0.2873    0.8164 C   0  0  0  0  0  0  0  0  0  0  0  0
    4.3480   -0.5135    2.0841 C   0  0  0  0  0  0  0  0  0  0  0  0
    5.7423   -0.4269    2.2459 C   0  0  0  0  0  0  0  0  0  0  0  0
    6.3583   -0.6392    3.6024 C   0  0  0  0  0  0  0  0  0  0  0  0
    6.4993    0.5965    4.2897 O   0  0  0  0  0  0  0  0  0  0  0  0
    6.5482   -0.0944    1.1494 C   0  0  0  0  0  0  0  0  0  0  0  0
    6.0013    0.1343   -0.1176 C   0  0  0  0  0  0  0  0  0  0  0  0
    4.6132    0.0306   -0.2495 C   0  0  0  0  0  0  0  0  0  0  0  0
    3.8119    0.1892   -1.3535 N   0  0  0  0  0  0  0  0  0  0  0  0
   -0.4547    0.8891   -0.5849 C   0  0  0  0  0  0  0  0  0  0  0  0
   -1.8138    0.8797   -0.2733 C   0  0  0  0  0  0  0  0  0  0  0  0
   -2.1864    1.6291    0.8110 O   0  0  0  0  0  0  0  0  0  0  0  0
  1  2  1  0
  2  3  2  0
  3  4  1  0
  4  5  2  0
  5  6  1  0
  5  7  1  0
  7  8  1  0
  2  9  1  0
  9 10  2  0
 10 11  1  0
 11 12  2  0
 12 13  1  0
 13 14  2  0
 13 15  1  0
 15 16  2  0
 16 17  1  0
 17 18  2  0
 18 19  1  0
 19 20  1  0
 20 21  1  0
 19 22  2  0
 22 23  1  0
 23 24  2  0
 24 25  1  0
 12 26  1  0
 26 27  2  0
 27 28  1  0
 27  9  1  0
 25 15  1  0
 24 17  1  0
M  END
>  <energy>  (179) 
31.95

>  <full_id>  (179) 
MOL00007502-001664-03_1

>  <mol_id>  (179) 
MOL00007502-001664-03

>  <act_mol>  (179) 
0

>  <act_conf>  (179) 
0

$$$$
MOL00007434-001035-03
     RDKit          3D

 31 34  0  0  0  0  0  0  0  0999 V2000
   -2.1338   -1.6169    3.0284 C   0  0  0  0  0  0  0  0  0  0  0  0
   -2.5954   -1.5478    1.6203 C   0  0  0  0  0  0  0  0  0  0  0  0
   -3.0324   -0.4847    0.8445 C   0  0  0  0  0  0  0  0  0  0  0  0
   -3.1665    0.9594    1.1876 C   0  0  0  0  0  0  0  0  0  0  0  0
   -1.8951    1.6358    0.9437 N   0  0  0  0  0  0  0  0  0  0  0  0
   -0.9931    1.7803    2.0804 C   0  0  0  0  0  0  0  0  0  0  0  0
   -1.5968    1.9789   -0.3659 C   0  0  0  0  0  0  0  0  0  0  0  0
   -2.4293    1.9709   -1.2726 O   0  0  0  0  0  0  0  0  0  0  0  0
   -0.2024    2.4048   -0.6916 C   0  0  0  0  0  0  0  0  0  0  0  0
   -0.0231    3.7499   -1.1978 C   0  0  0  0  0  0  0  0  0  0  0  0
    1.1616    4.2472   -1.5604 C   0  0  0  0  0  0  0  0  0  0  0  0
    2.3674    3.4081   -1.4542 C   0  0  0  0  0  0  0  0  0  0  0  0
    3.4658    3.8592   -1.7466 O   0  0  0  0  0  0  0  0  0  0  0  0
    2.1983    1.9748   -0.9633 C   0  0  0  0  0  0  0  0  0  0  0  0
    3.2710    1.2313   -0.8869 N   0  0  0  0  0  0  0  0  0  0  0  0
    3.1127   -0.0699   -0.4314 C   0  0  0  0  0  0  0  0  0  0  0  0
    4.3326   -0.8970   -0.3375 C   0  0  0  0  0  0  0  0  0  0  0  0
    5.5243   -0.3702   -0.6946 C   0  0  0  0  0  0  0  0  0  0  0  0
    6.7221   -1.0468   -0.6546 O   0  0  0  0  0  0  0  0  0  0  0  0
    4.2010   -2.2808    0.1414 C   0  0  0  0  0  0  0  0  0  0  0  0
    5.3286   -3.0756    0.2234 O   0  0  0  0  0  0  0  0  0  0  0  0
    3.0195   -2.7878    0.5050 C   0  0  0  0  0  0  0  0  0  0  0  0
    1.7949   -1.9653    0.4465 C   0  0  0  0  0  0  0  0  0  0  0  0
    0.7215   -2.4103    0.8449 O   0  0  0  0  0  0  0  0  0  0  0  0
    1.9067   -0.5691   -0.0798 C   0  0  0  0  0  0  0  0  0  0  0  0
    0.7575    0.1984   -0.1674 N   0  0  0  0  0  0  0  0  0  0  0  0
    0.7982    1.5112   -0.5887 C   0  0  0  0  0  0  0  0  0  0  0  0
   -3.3455   -1.0720   -0.4044 C   0  0  0  0  0  0  0  0  0  0  0  0
   -3.1222   -2.3839   -0.4268 N   0  0  0  0  0  0  0  0  0  0  0  0
   -2.6391   -2.6503    0.8000 N   0  0  0  0  0  0  0  0  0  0  0  0
   -2.2518   -4.0022    1.1268 C   0  0  0  0  0  0  0  0  0  0  0  0
  1  2  1  0
  2  3  2  0
  3  4  1  0
  4  5  1  0
  5  6  1  0
  5  7  1  0
  7  8  2  0
  7  9  1  0
  9 10  1  0
 10 11  2  0
 11 12  1  0
 12 13  2  0
 12 14  1  0
 14 15  2  0
 15 16  1  0
 16 17  1  0
 17 18  2  0
 18 19  1  0
 17 20  1  0
 20 21  1  0
 20 22  2  0
 22 23  1  0
 23 24  2  0
 23 25  1  0
 25 26  1  0
 26 27  1  0
  3 28  1  0
 28 29  2  0
 29 30  1  0
 30 31  1  0
 30  2  1  0
 27  9  2  0
 27 14  1  0
 25 16  2  0
M  END
>  <energy>  (180) 
130.78

>  <full_id>  (180) 
MOL00007434-001035-03_1

>  <mol_id>  (180) 
MOL00007434-001035-03

>  <act_mol>  (180) 
0

>  <act_conf>  (180) 
0

$$$$
MOL00007241-001978-04
     RDKit          3D

 32 35  0  0  0  0  0  0  0  0999 V2000
    3.7725   -2.1597   -3.8002 C   0  0  0  0  0  0  0  0  0  0  0  0
    3.3682   -0.5388   -4.4946 S   0  0  0  0  0  0  0  0  0  0  0  0
    2.7421    0.2237   -3.0762 C   0  0  0  0  0  0  0  0  0  0  0  0
    3.3809    1.1750   -2.3785 C   0  0  0  0  0  0  0  0  0  0  0  0
    4.6464    1.7364   -2.6490 C   0  0  0  0  0  0  0  0  0  0  0  0
    5.6820    2.2271   -2.8316 N   0  0  0  0  0  0  0  0  0  0  0  0
    2.4896    1.6620   -1.2737 C   0  0  2  0  0  0  0  0  0  0  0  0
    2.9909    1.2838    0.0382 N   0  0  0  0  0  0  0  0  0  0  0  0
    2.0757    1.6926    1.1081 C   0  0  2  0  0  0  0  0  0  0  0  0
    2.4542    0.9712    2.3821 C   0  0  0  0  0  0  0  0  0  0  0  0
    2.7662   -0.3632    2.5663 C   0  0  0  0  0  0  0  0  0  0  0  0
    3.0501   -0.6738    3.9280 C   0  0  0  0  0  0  0  0  0  0  0  0
    2.9427    0.4282    4.7561 C   0  0  0  0  0  0  0  0  0  0  0  0
    3.1410    0.5322    6.1988 C   0  0  0  0  0  0  0  0  0  0  0  0
    3.5413   -0.7345    6.9208 C   0  0  0  0  0  0  0  0  0  0  0  0
    3.0000    1.5735    6.8435 O   0  0  0  0  0  0  0  0  0  0  0  0
    2.5062    1.8270    3.8656 S   0  0  0  0  0  0  0  0  0  0  0  0
    0.6025    1.4389    0.7554 C   0  0  0  0  0  0  0  0  0  0  0  0
    0.5011    0.4442   -0.4066 C   0  0  1  0  0  0  0  0  0  0  0  0
   -0.9611    0.1291   -0.7047 C   0  0  0  0  0  0  0  0  0  0  0  0
   -1.8191    1.0771   -1.2736 C   0  0  0  0  0  0  0  0  0  0  0  0
   -3.1610    0.7693   -1.5086 C   0  0  0  0  0  0  0  0  0  0  0  0
   -3.6897   -0.4932   -1.1875 C   0  0  0  0  0  0  0  0  0  0  0  0
   -5.0544   -0.8017   -1.4033 N   0  0  0  0  0  0  0  0  0  0  0  0
   -5.9508    0.0558   -0.6211 C   0  0  0  0  0  0  0  0  0  0  0  0
   -5.3773   -0.8618   -2.8320 C   0  0  0  0  0  0  0  0  0  0  0  0
   -2.8314   -1.4680   -0.6377 C   0  0  0  0  0  0  0  0  0  0  0  0
   -3.3491   -2.8315   -0.2357 C   0  0  0  0  0  0  0  0  0  0  0  0
   -2.3996   -3.9098   -0.5381 N   0  0  0  0  0  0  0  0  0  0  0  0
   -1.4833   -1.1340   -0.3867 C   0  0  0  0  0  0  0  0  0  0  0  0
    1.1838    1.0150   -1.5850 N   0  0  0  0  0  0  0  0  0  0  0  0
    1.4988   -0.0218   -2.5155 N   0  0  0  0  0  0  0  0  0  0  0  0
  1  2  1  0
  2  3  1  0
  3  4  2  0
  4  5  1  0
  5  6  3  0
  4  7  1  0
  7  8  1  1
  8  9  1  0
  9 10  1  1
 10 11  2  0
 11 12  1  0
 12 13  2  0
 13 14  1  0
 14 15  1  0
 14 16  2  0
 13 17  1  0
  9 18  1  0
 18 19  1  0
 19 20  1  6
 20 21  2  0
 21 22  1  0
 22 23  2  0
 23 24  1  0
 24 25  1  0
 24 26  1  0
 23 27  1  0
 27 28  1  0
 28 29  1  0
 27 30  2  0
 19 31  1  0
 31 32  1  0
 32  3  1  0
 31  7  1  0
 17 10  1  0
 30 20  1  0
M  END
>  <energy>  (181) 
19.06

>  <full_id>  (181) 
MOL00007241-001978-04_1

>  <mol_id>  (181) 
MOL00007241-001978-04

>  <act_mol>  (181) 
0

>  <act_conf>  (181) 
0

$$$$
MOL00007390-003775-02
     RDKit          3D

 33 37  0  0  0  0  0  0  0  0999 V2000
   -6.1827    1.8145   -2.2805 C   0  0  0  0  0  0  0  0  0  0  0  0
   -5.9820    0.3170   -2.1268 C   0  0  0  0  0  0  0  0  0  0  0  0
   -5.0397   -0.0061   -1.0684 N   0  0  0  0  0  0  0  0  0  0  0  0
   -5.3581   -0.2032    0.2595 C   0  0  0  0  0  0  0  0  0  0  0  0
   -6.5951   -0.1395    0.9239 C   0  0  0  0  0  0  0  0  0  0  0  0
   -6.6245   -0.3912    2.2960 C   0  0  0  0  0  0  0  0  0  0  0  0
   -5.4592   -0.6963    2.9860 C   0  0  0  0  0  0  0  0  0  0  0  0
   -4.2298   -0.7543    2.3187 C   0  0  0  0  0  0  0  0  0  0  0  0
   -4.1620   -0.5022    0.9281 C   0  0  0  0  0  0  0  0  0  0  0  0
   -3.1029   -0.4700   -0.0461 C   0  0  0  0  0  0  0  0  0  0  0  0
   -1.7025   -0.6634   -0.0633 C   0  0  0  0  0  0  0  0  0  0  0  0
   -0.9867   -0.9762    1.0969 N   0  0  0  0  0  0  0  0  0  0  0  0
    0.3321   -1.1866    1.2937 C   0  0  0  0  0  0  0  0  0  0  0  0
    0.7811   -1.4186    2.5125 N   0  0  0  0  0  0  0  0  0  0  0  0
    2.1488   -1.6074    2.5031 C   0  0  0  0  0  0  0  0  0  0  0  0
    2.7495   -1.5071    1.2719 C   0  0  0  0  0  0  0  0  0  0  0  0
    4.4202   -1.6418    0.7516 S   0  0  0  0  0  6  0  0  0  0  0  0
    4.4522   -2.7405   -0.1936 O   0  0  0  0  0  0  0  0  0  0  0  0
    5.1920   -1.6775    1.9794 O   0  0  0  0  0  0  0  0  0  0  0  0
    4.8223   -0.1374   -0.0947 C   0  0  0  0  0  0  0  0  0  0  0  0
    5.0617    1.0213    0.6491 C   0  0  0  0  0  0  0  0  0  0  0  0
    5.3849    2.2068   -0.0126 C   0  0  0  0  0  0  0  0  0  0  0  0
    5.4717    2.2410   -1.4131 C   0  0  0  0  0  0  0  0  0  0  0  0
    5.8457    3.5178   -2.1234 C   0  0  0  0  0  0  0  0  0  0  0  0
    7.2900    3.6317   -2.2788 N   0  0  0  0  0  0  0  0  0  0  0  0
    5.2510    1.0619   -2.1422 C   0  0  0  0  0  0  0  0  0  0  0  0
    4.9282   -0.1276   -1.4873 C   0  0  0  0  0  0  0  0  0  0  0  0
    1.5662   -1.1935    0.0867 S   0  0  0  0  0  0  0  0  0  0  0  0
   -1.0715   -0.5310   -1.2595 N   0  0  0  0  0  0  0  0  0  0  0  0
   -1.7573   -0.2154   -2.3620 C   0  0  0  0  0  0  0  0  0  0  0  0
   -1.0336   -0.1232   -3.5356 N   0  0  0  0  0  0  0  0  0  0  0  0
   -3.0716   -0.0308   -2.4440 N   0  0  0  0  0  0  0  0  0  0  0  0
   -3.6925   -0.1625   -1.2624 C   0  0  0  0  0  0  0  0  0  0  0  0
  1  2  1  0
  2  3  1  0
  3  4  1  0
  4  5  2  0
  5  6  1  0
  6  7  2  0
  7  8  1  0
  8  9  2  0
  9 10  1  0
 10 11  2  0
 11 12  1  0
 12 13  1  0
 13 14  2  0
 14 15  1  0
 15 16  2  0
 17 16  1  0
 17 18  2  0
 17 19  2  0
 17 20  1  0
 20 21  2  0
 21 22  1  0
 22 23  2  0
 23 24  1  0
 24 25  1  0
 23 26  1  0
 26 27  2  0
 16 28  1  0
 11 29  1  0
 29 30  2  0
 30 31  1  0
 30 32  1  0
 32 33  2  0
 33  3  1  0
  9  4  1  0
 33 10  1  0
 28 13  1  0
 27 20  1  0
M  END
>  <energy>  (182) 
-68.50

>  <full_id>  (182) 
MOL00007390-003775-02_1

>  <mol_id>  (182) 
MOL00007390-003775-02

>  <act_mol>  (182) 
0

>  <act_conf>  (182) 
0

$$$$
MOL00007583-000270-02
     RDKit          3D

 28 30  0  0  0  0  0  0  0  0999 V2000
    5.8196    1.2832   -4.2853 C   0  0  0  0  0  0  0  0  0  0  0  0
    5.0272    0.6282   -3.2932 O   0  0  0  0  0  0  0  0  0  0  0  0
    4.2056    1.4606   -2.6078 C   0  0  0  0  0  0  0  0  0  0  0  0
    4.1047    2.6659   -2.7730 O   0  0  0  0  0  0  0  0  0  0  0  0
    3.4136    0.7053   -1.5988 C   0  0  0  0  0  0  0  0  0  0  0  0
    2.5195    1.4178   -0.7906 C   0  0  0  0  0  0  0  0  0  0  0  0
    1.7499    0.7548    0.1717 C   0  0  0  0  0  0  0  0  0  0  0  0
    1.8472   -0.6316    0.3309 C   0  0  0  0  0  0  0  0  0  0  0  0
    1.0828   -1.3077    1.3199 N   0  0  0  0  0  0  0  0  0  0  0  0
    1.7836   -2.2890    2.1461 C   0  0  0  0  0  0  0  0  0  0  0  0
   -0.2899   -1.1398    1.5482 C   0  0  0  0  0  0  0  0  0  0  0  0
   -0.8221   -1.5970    2.5652 O   0  0  0  0  0  0  0  0  0  0  0  0
   -1.1434   -0.4776    0.4363 C   0  0  1  0  0  0  0  0  0  0  0  0
   -1.1516   -1.3746   -0.7955 C   0  0  0  0  0  0  0  0  0  0  0  0
   -2.5752   -1.3825   -1.2553 C   0  0  0  0  0  0  0  0  0  0  0  0
   -2.9164   -1.8104   -2.3474 O   0  0  0  0  0  0  0  0  0  0  0  0
   -3.3556   -0.7961   -0.2474 N   0  0  0  0  0  0  0  0  0  0  0  0
   -4.7554   -0.7786   -0.1129 C   0  0  0  0  0  0  0  0  0  0  0  0
   -5.8784   -1.5174   -1.1067 S   0  0  0  0  0  0  0  0  0  0  0  0
   -5.2361   -0.0616    0.9662 N   0  0  0  0  0  0  0  0  0  0  0  0
   -4.4919    0.7071    1.8333 C   0  0  0  0  0  0  0  0  0  0  0  0
   -5.0329    1.2659    2.7854 O   0  0  0  0  0  0  0  0  0  0  0  0
   -3.0063    0.8974    1.4436 C   0  0  0  0  0  0  0  0  0  0  0  0
   -2.9386    2.0854    0.4602 C   0  0  0  0  0  0  0  0  0  0  0  0
   -2.2190    1.2560    2.7147 C   0  0  0  0  0  0  0  0  0  0  0  0
   -2.5578   -0.3885    0.8571 N   0  0  0  0  0  0  0  0  0  0  0  0
    2.7690   -1.3362   -0.4545 C   0  0  0  0  0  0  0  0  0  0  0  0
    3.5385   -0.6770   -1.4210 C   0  0  0  0  0  0  0  0  0  0  0  0
  1  2  1  0
  2  3  1  0
  3  4  2  0
  3  5  1  0
  5  6  2  0
  6  7  1  0
  7  8  2  0
  8  9  1  0
  9 10  1  0
  9 11  1  0
 11 12  2  0
 13 11  1  1
 13 14  1  0
 14 15  1  0
 15 16  2  0
 15 17  1  0
 17 18  1  0
 18 19  2  0
 18 20  1  0
 20 21  1  0
 21 22  2  0
 21 23  1  0
 23 24  1  0
 23 25  1  0
 23 26  1  0
  8 27  1  0
 27 28  2  0
 28  5  1  0
 26 13  1  0
 26 17  1  0
M  END
>  <energy>  (183) 
90.22

>  <full_id>  (183) 
MOL00007583-000270-02_1

>  <mol_id>  (183) 
MOL00007583-000270-02

>  <act_mol>  (183) 
0

>  <act_conf>  (183) 
0

$$$$
MOL00007497-000094-04
     RDKit          3D

 34 36  0  0  0  0  0  0  0  0999 V2000
   -7.5954    0.9891    2.1293 C   0  0  0  0  0  0  0  0  0  0  0  0
   -6.4276    0.0755    1.7843 C   0  0  0  0  0  0  0  0  0  0  0  0
   -5.4246    0.8313    1.0543 N   0  0  0  0  0  0  0  0  0  0  0  0
   -4.2786    0.1214    0.7180 C   0  0  0  0  0  0  0  0  0  0  0  0
   -3.1579    0.8220    0.6926 N   0  0  0  0  0  0  0  0  0  0  0  0
   -2.0812    0.1298    0.3339 C   0  0  0  0  0  0  0  0  0  0  0  0
   -0.8643    0.8227    0.2799 N   0  0  0  0  0  0  0  0  0  0  0  0
   -0.6976    1.2957   -0.8693 N   0  0  0  0  0  0  0  0  0  0  0  0
    0.5622    1.8449   -1.0008 C   0  0  0  0  0  0  0  0  0  0  0  0
    1.6341    1.1119   -1.1479 N   0  0  0  0  0  0  0  0  0  0  0  0
    1.4466   -0.2413   -1.1876 N   0  0  0  0  0  0  0  0  0  0  0  0
    2.5375   -1.0831   -0.8885 C   0  0  0  0  0  0  0  0  0  0  0  0
    3.8648   -0.6440   -0.9483 C   0  0  0  0  0  0  0  0  0  0  0  0
    4.9274   -1.5193   -0.6998 C   0  0  0  0  0  0  0  0  0  0  0  0
    4.6815   -2.8639   -0.3986 C   0  0  0  0  0  0  0  0  0  0  0  0
    5.8158   -3.8121   -0.1032 C   0  0  0  0  0  0  0  0  0  0  0  0
    5.8997   -4.1738    1.3662 C   0  0  0  0  0  0  0  0  0  0  0  0
    6.4356   -3.2127    2.1770 N   0  0  0  0  0  0  0  0  0  0  0  0
    5.5335   -5.2513    1.8261 O   0  0  0  0  0  0  0  0  0  0  0  0
    3.3575   -3.3165   -0.3639 C   0  0  0  0  0  0  0  0  0  0  0  0
    2.3009   -2.4375   -0.6204 C   0  0  0  0  0  0  0  0  0  0  0  0
    0.6586    3.3396   -0.9986 C   0  0  0  0  0  0  0  0  0  0  0  0
   -0.3352    4.0899   -0.3386 C   0  0  0  0  0  0  0  0  0  0  0  0
   -0.2610    5.4825   -0.3044 C   0  0  0  0  0  0  0  0  0  0  0  0
    0.7927    6.1236   -0.9391 C   0  0  0  0  0  0  0  0  0  0  0  0
    0.8531    7.4617   -0.9254 F   0  0  0  0  0  0  0  0  0  0  0  0
    1.7788    5.4002   -1.6029 C   0  0  0  0  0  0  0  0  0  0  0  0
    1.7505    3.9981   -1.6136 C   0  0  0  0  0  0  0  0  0  0  0  0
    2.6762    3.3246   -2.4340 N   0  0  0  0  0  0  0  0  0  0  0  0
   -2.0286   -1.1630    0.0427 N   0  0  0  0  0  0  0  0  0  0  0  0
   -3.2073   -1.7541    0.1031 C   0  0  0  0  0  0  0  0  0  0  0  0
   -3.1849   -3.1003   -0.1963 O   0  0  0  0  0  0  0  0  0  0  0  0
   -4.4829   -3.6692   -0.3108 C   0  0  0  0  0  0  0  0  0  0  0  0
   -4.3539   -1.1718    0.4370 N   0  0  0  0  0  0  0  0  0  0  0  0
  1  2  1  0
  2  3  1  0
  3  4  1  0
  4  5  2  0
  5  6  1  0
  6  7  1  0
  7  8  2  0
  8  9  1  0
  9 10  2  0
 10 11  1  0
 11 12  1  0
 12 13  2  0
 13 14  1  0
 14 15  2  0
 15 16  1  0
 16 17  1  0
 17 18  1  0
 17 19  2  0
 15 20  1  0
 20 21  2  0
  9 22  1  0
 22 23  2  0
 23 24  1  0
 24 25  2  0
 25 26  1  0
 25 27  1  0
 27 28  2  0
 28 29  1  0
  6 30  2  0
 30 31  1  0
 31 32  1  0
 32 33  1  0
 31 34  2  0
 34  4  1  0
 21 12  1  0
 28 22  1  0
M  END
>  <energy>  (184) 
-99.99

>  <full_id>  (184) 
MOL00007497-000094-04_1

>  <mol_id>  (184) 
MOL00007497-000094-04

>  <act_mol>  (184) 
0

>  <act_conf>  (184) 
0

$$$$
MOL00007611-000092-00
     RDKit          3D

 30 34  0  0  0  0  0  0  0  0999 V2000
   -0.9953   -1.9533   -3.3992 O   0  0  0  0  0  0  0  0  0  0  0  0
   -1.4872   -1.4078   -2.4191 C   0  0  0  0  0  0  0  0  0  0  0  0
   -1.2399   -0.1034   -2.0492 N   0  0  0  0  0  0  0  0  0  0  0  0
   -0.3167    0.7674   -2.7416 C   0  0  0  0  0  0  0  0  0  0  0  0
    1.0606    0.8748   -2.0529 C   0  0  2  0  0  0  0  0  0  0  0  0
    1.8009   -0.4814   -2.0143 C   0  0  0  0  0  0  0  0  0  0  0  0
    3.1879   -0.3344   -1.3731 C   0  0  0  0  0  0  0  0  0  0  0  0
    3.4517    1.1264   -0.9318 C   0  0  2  0  0  0  0  0  0  0  0  0
    4.8070    1.2632   -0.3032 C   0  0  0  0  0  0  0  0  0  0  0  0
    5.0023    1.6672    0.9924 N   0  0  0  0  0  0  0  0  0  0  0  0
    6.3124    1.6699    1.1935 N   0  0  0  0  0  0  0  0  0  0  0  0
    6.8362    1.2717    0.0285 N   0  0  0  0  0  0  0  0  0  0  0  0
    5.9565    1.0031   -0.9484 N   0  0  0  0  0  0  0  0  0  0  0  0
    2.3201    1.5298    0.0488 C   0  0  0  0  0  0  0  0  0  0  0  0
    0.9382    1.3901   -0.6017 C   0  0  0  0  0  0  0  0  0  0  0  0
    3.3224    2.0311   -2.1810 C   0  0  0  0  0  0  0  0  0  0  0  0
    1.9442    1.8758   -2.8354 C   0  0  0  0  0  0  0  0  0  0  0  0
   -2.4217   -2.1371   -1.5006 C   0  0  0  0  0  0  0  0  0  0  0  0
   -2.8430   -3.4210   -1.8237 C   0  0  0  0  0  0  0  0  0  0  0  0
   -3.7093   -4.0658   -0.9492 C   0  0  0  0  0  0  0  0  0  0  0  0
   -4.1138   -3.4117    0.2120 C   0  0  0  0  0  0  0  0  0  0  0  0
   -3.6302   -2.1291    0.4690 C   0  0  0  0  0  0  0  0  0  0  0  0
   -4.0886   -1.4321    1.7186 C   0  0  0  0  0  0  0  0  0  0  0  0
   -5.1425   -1.8015    2.2408 O   0  0  0  0  0  0  0  0  0  0  0  0
   -3.3315   -0.4075    2.2685 N   0  0  0  0  0  0  0  0  0  0  0  0
   -1.9878    0.0118    1.9001 C   0  0  0  0  0  0  0  0  0  0  0  0
   -1.5018    0.8275    3.0920 C   0  0  0  0  0  0  0  0  0  0  0  0
   -2.7908    1.4220    3.6431 C   0  0  0  0  0  0  0  0  0  0  0  0
   -3.7843    0.2845    3.4628 C   0  0  0  0  0  0  0  0  0  0  0  0
   -2.7954   -1.4684   -0.3730 N   0  0  0  0  0  0  0  0  0  0  0  0
  1  2  2  0
  2  3  1  0
  3  4  1  0
  5  4  1  6
  5  6  1  0
  6  7  1  0
  7  8  1  0
  8  9  1  1
  9 10  1  0
 10 11  2  0
 11 12  1  0
 12 13  1  0
  8 14  1  0
 14 15  1  0
  8 16  1  0
 16 17  1  0
  2 18  1  0
 18 19  2  0
 19 20  1  0
 20 21  2  0
 21 22  1  0
 22 23  1  0
 23 24  2  0
 23 25  1  0
 25 26  1  0
 26 27  1  0
 27 28  1  0
 28 29  1  0
 22 30  2  0
 15  5  1  0
 30 18  1  0
 17  5  1  0
 29 25  1  0
 13  9  2  0
M  END
>  <energy>  (185) 
102.99

>  <full_id>  (185) 
MOL00007611-000092-00_1

>  <mol_id>  (185) 
MOL00007611-000092-00

>  <act_mol>  (185) 
0

>  <act_conf>  (185) 
0

$$$$
MOL00007656-002199-03
     RDKit          3D

 30 33  0  0  0  0  0  0  0  0999 V2000
    5.5864    1.3506   -2.9456 C   0  0  0  0  0  0  0  0  0  0  0  0
    6.4600    1.1666   -1.8386 O   0  0  0  0  0  0  0  0  0  0  0  0
    5.9010    0.7415   -0.6657 C   0  0  0  0  0  0  0  0  0  0  0  0
    6.8163    0.4857    0.3558 C   0  0  0  0  0  0  0  0  0  0  0  0
    6.3869    0.0343    1.6061 C   0  0  0  0  0  0  0  0  0  0  0  0
    5.0227   -0.1568    1.8685 C   0  0  0  0  0  0  0  0  0  0  0  0
    4.5971   -0.6364    3.2317 C   0  0  0  0  0  0  0  0  0  0  0  0
    4.2633   -2.0138    3.1825 O   0  0  0  0  0  0  0  0  0  0  0  0
    4.1021    0.1059    0.8355 C   0  0  0  0  0  0  0  0  0  0  0  0
    2.6474   -0.1213    1.0443 C   0  0  0  0  0  0  0  0  0  0  0  0
    2.2523   -1.1274    1.6225 O   0  0  0  0  0  0  0  0  0  0  0  0
    1.8171    0.8632    0.5714 N   0  0  0  0  0  0  0  0  0  0  0  0
    0.3972    0.7678    0.6919 C   0  0  2  0  0  0  0  0  0  0  0  0
   -0.2417   -0.1533   -0.3416 C   0  0  0  0  0  0  0  0  0  0  0  0
   -1.1610    0.7645   -1.1298 C   0  0  1  0  0  0  0  0  0  0  0  0
   -2.4500    0.1483   -1.5792 C   0  0  0  0  0  0  0  0  0  0  0  0
   -2.7999   -0.1341   -2.8880 C   0  0  0  0  0  0  0  0  0  0  0  0
   -4.1022   -0.6803   -2.9075 C   0  0  0  0  0  0  0  0  0  0  0  0
   -4.9434   -1.1275   -3.9467 C   0  0  0  0  0  0  0  0  0  0  0  0
   -6.2155   -1.6174   -3.6452 C   0  0  0  0  0  0  0  0  0  0  0  0
   -6.6530   -1.6620   -2.3280 C   0  0  0  0  0  0  0  0  0  0  0  0
   -5.8329   -1.2235   -1.2824 C   0  0  0  0  0  0  0  0  0  0  0  0
   -4.5475   -0.7348   -1.5850 C   0  0  0  0  0  0  0  0  0  0  0  0
   -3.5194   -0.2465   -0.7794 N   0  0  0  0  0  0  0  0  0  0  0  0
   -3.5703   -0.1625    0.6854 C   0  0  0  0  0  0  0  0  0  0  0  0
   -3.7267   -1.5281    1.3594 C   0  0  0  0  0  0  0  0  0  0  0  0
   -4.5977    0.8564    1.1809 C   0  0  0  0  0  0  0  0  0  0  0  0
   -1.3580    1.9350   -0.2693 N   0  0  0  0  0  0  0  0  0  0  0  0
   -0.0896    2.1147    0.4013 N   0  0  0  0  0  0  0  0  0  0  0  0
    4.5420    0.5483   -0.4261 C   0  0  0  0  0  0  0  0  0  0  0  0
  1  2  1  0
  2  3  1  0
  3  4  2  0
  4  5  1  0
  5  6  2  0
  6  7  1  0
  7  8  1  0
  6  9  1  0
  9 10  1  0
 10 11  2  0
 10 12  1  0
 13 12  1  6
 13 14  1  0
 14 15  1  0
 15 16  1  1
 16 17  2  0
 17 18  1  0
 18 19  2  0
 19 20  1  0
 20 21  2  0
 21 22  1  0
 22 23  2  0
 23 24  1  0
 24 25  1  0
 25 26  1  0
 25 27  1  0
 15 28  1  0
 28 29  1  0
  9 30  2  0
 30  3  1  0
 29 13  1  0
 24 16  1  0
 23 18  1  0
M  END
>  <energy>  (186) 
20.80

>  <full_id>  (186) 
MOL00007656-002199-03_1

>  <mol_id>  (186) 
MOL00007656-002199-03

>  <act_mol>  (186) 
0

>  <act_conf>  (186) 
0

$$$$
MOL00007590-001495-03
     RDKit          3D

 34 36  0  0  0  0  0  0  0  0999 V2000
   -0.5780   -1.9188    3.0170 C   0  0  0  0  0  0  0  0  0  0  0  0
   -1.2301   -0.8690    2.6454 N   0  0  0  0  0  0  0  0  0  0  0  0
   -2.1737   -1.0830    1.6881 N   0  0  0  0  0  0  0  0  0  0  0  0
   -3.0553   -0.1403    1.1676 C   0  0  0  0  0  0  0  0  0  0  0  0
   -3.1389    1.1269    1.3734 N   0  0  0  0  0  0  0  0  0  0  0  0
   -2.2256    1.8257    2.2676 C   0  0  0  0  0  0  0  0  0  0  0  0
   -0.8299    1.8345    1.8820 N   0  0  0  0  0  0  0  0  0  0  0  0
   -0.5938    2.3815    0.6283 C   0  0  0  0  0  0  0  0  0  0  0  0
   -1.2122    3.4939    0.2568 N   0  0  0  0  0  0  0  0  0  0  0  0
   -0.9654    3.9246   -0.9717 C   0  0  0  0  0  0  0  0  0  0  0  0
   -1.5996    5.0648   -1.4551 N   0  0  0  0  0  0  0  0  0  0  0  0
   -2.9361    5.2667   -0.9376 C   0  0  0  0  0  0  0  0  0  0  0  0
   -0.1349    3.3299   -1.8142 N   0  0  0  0  0  0  0  0  0  0  0  0
    0.4773    2.2553   -1.3358 C   0  0  0  0  0  0  0  0  0  0  0  0
    1.3693    1.6622   -2.2167 N   0  0  0  0  0  0  0  0  0  0  0  0
    2.2070    0.6057   -2.0531 C   0  0  0  0  0  0  0  0  0  0  0  0
    2.9148    0.2966   -3.0121 O   0  0  0  0  0  0  0  0  0  0  0  0
    2.1960   -0.0108   -0.8311 N   0  0  0  0  0  0  0  0  0  0  0  0
    3.0092   -1.0669   -0.3766 C   0  0  0  0  0  0  0  0  0  0  0  0
    3.9984   -1.6730   -1.1502 C   0  0  0  0  0  0  0  0  0  0  0  0
    4.7836   -2.7021   -0.6218 C   0  0  0  0  0  0  0  0  0  0  0  0
    4.5866   -3.1328    0.6891 C   0  0  0  0  0  0  0  0  0  0  0  0
    3.6042   -2.5363    1.4929 C   0  0  0  0  0  0  0  0  0  0  0  0
    3.4129   -3.0168    2.9159 C   0  0  1  0  0  0  0  0  0  0  0  0
    3.4523   -1.8806    3.9406 C   0  0  0  0  0  0  0  0  0  0  0  0
    2.1527   -3.7617    3.0406 N   0  0  0  0  0  0  0  0  0  0  0  0
    2.8129   -1.5116    0.9391 C   0  0  0  0  0  0  0  0  0  0  0  0
    0.2844    1.7332   -0.1312 N   0  0  0  0  0  0  0  0  0  0  0  0
   -4.0667   -0.6786    0.1905 C   0  0  0  0  0  0  0  0  0  0  0  0
   -4.7138   -1.8969    0.4332 C   0  0  0  0  0  0  0  0  0  0  0  0
   -5.6366   -2.3879   -0.4897 C   0  0  0  0  0  0  0  0  0  0  0  0
   -5.9139   -1.6694   -1.6530 C   0  0  0  0  0  0  0  0  0  0  0  0
   -5.2792   -0.4503   -1.8917 C   0  0  0  0  0  0  0  0  0  0  0  0
   -4.3587    0.0493   -0.9692 C   0  0  0  0  0  0  0  0  0  0  0  0
  1  2  2  0
  2  3  1  0
  3  4  1  0
  4  5  2  0
  5  6  1  0
  6  7  1  0
  7  8  1  0
  8  9  2  0
  9 10  1  0
 10 11  1  0
 11 12  1  0
 10 13  2  0
 13 14  1  0
 14 15  1  0
 15 16  1  0
 16 17  2  0
 16 18  1  0
 18 19  1  0
 19 20  2  0
 20 21  1  0
 21 22  2  0
 22 23  1  0
 23 24  1  0
 24 25  1  1
 24 26  1  0
 23 27  2  0
 14 28  2  0
  4 29  1  0
 29 30  2  0
 30 31  1  0
 31 32  2  0
 32 33  1  0
 33 34  2  0
 28  8  1  0
 34 29  1  0
 27 19  1  0
M  END
>  <energy>  (187) 
-318.44

>  <full_id>  (187) 
MOL00007590-001495-03_1

>  <mol_id>  (187) 
MOL00007590-001495-03

>  <act_mol>  (187) 
0

>  <act_conf>  (187) 
0

$$$$
MOL00007539-000628-03
     RDKit          3D

 35 38  0  0  0  0  0  0  0  0999 V2000
    7.3462   -1.0946   -0.2179 C   0  0  0  0  0  0  0  0  0  0  0  0
    7.0323    0.1744    0.3421 O   0  0  0  0  0  0  0  0  0  0  0  0
    5.7115    0.5254    0.4401 C   0  0  0  0  0  0  0  0  0  0  0  0
    4.6463   -0.2335   -0.0694 C   0  0  0  0  0  0  0  0  0  0  0  0
    3.3023    0.1742    0.0753 C   0  0  0  0  0  0  0  0  0  0  0  0
    3.0631    1.4123    0.6875 C   0  0  0  0  0  0  0  0  0  0  0  0
    4.1164    2.1784    1.2061 C   0  0  0  0  0  0  0  0  0  0  0  0
    5.4376    1.7362    1.0885 C   0  0  0  0  0  0  0  0  0  0  0  0
    6.4916    2.5504    1.6247 C   0  0  0  0  0  0  0  0  0  0  0  0
    7.3174    3.2358    2.0678 N   0  0  0  0  0  0  0  0  0  0  0  0
    1.6918    1.9629    0.7723 C   0  0  0  0  0  0  0  0  0  0  0  0
    1.4634    2.9371    1.4850 O   0  0  0  0  0  0  0  0  0  0  0  0
    0.6284    1.3032   -0.0801 C   0  0  1  0  0  0  0  0  0  0  0  0
    0.7607   -0.2255    0.0446 C   0  0  1  0  0  0  0  0  0  0  0  0
   -0.4133   -0.9361   -0.6804 C   0  0  2  0  0  0  0  0  0  0  0  0
   -0.2355   -0.8142   -2.0925 O   0  0  0  0  0  0  0  0  0  0  0  0
   -1.7910   -0.4038   -0.2198 C   0  0  2  0  0  0  0  0  0  0  0  0
   -2.9862   -1.1334   -0.8630 C   0  0  1  0  0  0  0  0  0  0  0  0
   -2.8752   -2.6132   -0.7231 N   0  0  0  0  0  0  0  0  0  0  0  0
   -3.7267   -3.3344   -1.6681 C   0  0  0  0  0  0  0  0  0  0  0  0
   -3.0269   -3.1414    0.6302 C   0  0  0  0  0  0  0  0  0  0  0  0
   -4.3004   -0.5582   -0.2826 C   0  0  0  0  0  0  0  0  0  0  0  0
   -5.2994   -1.2496   -0.0622 O   0  0  0  0  0  0  0  0  0  0  0  0
   -4.3858    0.9229   -0.0640 C   0  0  0  0  0  0  0  0  0  0  0  0
   -5.6813    1.6100    0.2349 C   0  0  0  0  0  0  0  0  0  0  0  0
   -6.7839    0.8360    0.3797 N   0  0  0  0  0  0  0  0  0  0  0  0
   -5.7549    2.8329    0.3472 O   0  0  0  0  0  0  0  0  0  0  0  0
   -3.2714    1.6754   -0.2065 C   0  0  0  0  0  0  0  0  0  0  0  0
   -3.2883    3.0695   -0.1938 O   0  0  0  0  0  0  0  0  0  0  0  0
   -1.8881    1.1155   -0.4848 C   0  0  2  0  0  0  0  0  0  0  0  0
   -1.6561    1.3856   -1.8819 O   0  0  0  0  0  0  0  0  0  0  0  0
   -0.7672    1.8159    0.3422 C   0  0  1  0  0  0  0  0  0  0  0  0
   -0.9719    1.5624    1.7400 O   0  0  0  0  0  0  0  0  0  0  0  0
    2.1616   -0.6848   -0.4772 C   0  0  2  0  0  0  0  0  0  0  0  0
    2.3684   -2.1805   -0.1680 C   0  0  0  0  0  0  0  0  0  0  0  0
  1  2  1  0
  2  3  1  0
  3  4  2  0
  4  5  1  0
  5  6  2  0
  6  7  1  0
  7  8  2  0
  8  9  1  0
  9 10  3  0
  6 11  1  0
 11 12  2  0
 13 11  1  1
 13 14  1  0
 14 15  1  0
 15 16  1  6
 15 17  1  0
 17 18  1  6
 18 19  1  1
 19 20  1  0
 19 21  1  0
 18 22  1  0
 22 23  2  0
 22 24  1  0
 24 25  1  0
 25 26  1  0
 25 27  2  0
 24 28  2  0
 28 29  1  0
 28 30  1  0
 30 31  1  6
 30 32  1  0
 32 33  1  1
 14 34  1  6
 34 35  1  1
  8  3  1  0
 32 13  1  0
 34  5  1  0
 30 17  1  0
M  END
>  <energy>  (188) 
109.33

>  <full_id>  (188) 
MOL00007539-000628-03_1

>  <mol_id>  (188) 
MOL00007539-000628-03

>  <act_mol>  (188) 
0

>  <act_conf>  (188) 
0

$$$$
MOL00007686-002212-04
     RDKit          3D

 28 30  0  0  0  0  0  0  0  0999 V2000
   -8.5882   -2.3361    0.5002 C   0  0  0  0  0  0  0  0  0  0  0  0
   -7.3706   -2.4579   -0.4038 C   0  0  0  0  0  0  0  0  0  0  0  0
   -6.4246   -1.2647   -0.2368 C   0  0  0  0  0  0  0  0  0  0  0  0
   -5.2150   -1.3602   -1.1758 C   0  0  1  0  0  0  0  0  0  0  0  0
   -4.3399   -0.1965   -1.0525 N   0  0  0  0  0  0  0  0  0  0  0  0
   -3.3534   -0.6513   -0.0843 C   0  0  2  0  0  0  0  0  0  0  0  0
   -2.0722    0.2212   -0.0297 C   0  0  2  0  0  0  0  0  0  0  0  0
   -1.2732    0.2830   -1.3447 C   0  0  0  0  0  0  0  0  0  0  0  0
   -0.0869    1.2367   -1.2172 C   0  0  0  0  0  0  0  0  0  0  0  0
    0.8634    0.8282   -0.0832 C   0  0  2  0  0  0  0  0  0  0  0  0
    0.1397    0.5728    1.2439 C   0  0  1  0  0  0  0  0  0  0  0  0
   -0.0453    1.9655    1.8569 C   0  0  0  0  0  0  0  0  0  0  0  0
    1.0305    2.8568    1.2262 C   0  0  0  0  0  0  0  0  0  0  0  0
    1.8402    1.9610    0.2765 C   0  0  1  0  0  0  0  0  0  0  0  0
    3.0320    1.4350    0.9272 N   0  0  0  0  0  0  0  0  0  0  0  0
    4.1373    2.2334    1.1587 C   0  0  0  0  0  0  0  0  0  0  0  0
    4.1527    3.4465    0.9729 O   0  0  0  0  0  0  0  0  0  0  0  0
    5.3493    1.4728    1.7032 C   0  0  0  0  0  0  0  0  0  0  0  0
    6.1598    0.8895    0.6829 O   0  0  0  0  0  0  0  0  0  0  0  0
    5.6585   -0.2427    0.1188 C   0  0  0  0  0  0  0  0  0  0  0  0
    4.6119   -0.7830    0.4562 O   0  0  0  0  0  0  0  0  0  0  0  0
    6.6031   -0.7627   -0.9325 C   0  0  0  0  0  0  0  0  0  0  0  0
    5.8336   -1.3498   -2.1025 C   0  0  0  0  0  0  0  0  0  0  0  0
    5.2618   -0.2789   -2.8571 O   0  0  0  0  0  0  0  0  0  0  0  0
    4.5452   -0.7550   -3.9899 C   0  0  0  0  0  0  0  0  0  0  0  0
   -1.1455   -0.2448    1.1119 C   0  0  0  0  0  0  0  0  0  0  0  0
   -3.1245   -2.0467   -0.4203 N   0  0  0  0  0  0  0  0  0  0  0  0
   -4.4384   -2.5222   -0.8726 O   0  0  0  0  0  0  0  0  0  0  0  0
  1  2  1  0
  2  3  1  0
  4  3  1  1
  4  5  1  0
  6  5  1  6
  6  7  1  0
  7  8  1  6
  8  9  1  0
 10  9  1  6
 10 11  1  0
 11 12  1  6
 12 13  1  0
 13 14  1  0
 14 15  1  1
 15 16  1  0
 16 17  2  0
 16 18  1  0
 18 19  1  0
 19 20  1  0
 20 21  2  0
 20 22  1  0
 22 23  1  0
 23 24  1  0
 24 25  1  0
 11 26  1  0
  6 27  1  0
 27 28  1  0
 28  4  1  0
 26  7  1  0
 14 10  1  0
M  END
>  <energy>  (189) 
-14.22

>  <full_id>  (189) 
MOL00007686-002212-04_1

>  <mol_id>  (189) 
MOL00007686-002212-04

>  <act_mol>  (189) 
0

>  <act_conf>  (189) 
0

$$$$
MOL00007291-001944-04
     RDKit          3D

 35 38  0  0  0  0  0  0  0  0999 V2000
    7.1037   -5.2859    3.9048 C   0  0  0  0  0  0  0  0  0  0  0  0
    6.3471   -4.1271    3.5458 O   0  0  0  0  0  0  0  0  0  0  0  0
    5.6336   -4.2662    2.3922 C   0  0  0  0  0  0  0  0  0  0  0  0
    5.6269   -5.2667    1.6883 O   0  0  0  0  0  0  0  0  0  0  0  0
    4.8237   -3.0090    2.1233 C   0  0  1  0  0  0  0  0  0  0  0  0
    4.9933   -2.5671    0.6619 C   0  0  0  0  0  0  0  0  0  0  0  0
    3.8650   -1.6344    0.2371 C   0  0  0  0  0  0  0  0  0  0  0  0
    2.4688   -2.2936    0.3326 C   0  0  2  0  0  0  0  0  0  0  0  0
    1.4727   -1.3196    0.8000 N   0  0  0  0  0  0  0  0  0  0  0  0
    1.1815   -0.2645   -0.1302 C   0  0  1  0  0  0  0  0  0  0  0  0
    0.2410   -0.7553   -1.0735 N   0  0  0  0  0  0  0  0  0  0  0  0
   -0.0861    0.3313   -1.9409 C   0  0  1  0  0  0  0  0  0  0  0  0
   -1.1820   -0.1469   -2.7532 N   0  0  0  0  0  0  0  0  0  0  0  0
   -2.3957   -0.4602   -2.1545 N   0  0  0  0  0  0  0  0  0  0  0  0
   -3.3429   -0.6781   -3.0142 C   0  0  0  0  0  0  0  0  0  0  0  0
   -4.7415   -1.0255   -2.5537 C   0  0  1  0  0  0  0  0  0  0  0  0
   -5.5571    0.2617   -2.4330 C   0  0  0  0  0  0  0  0  0  0  0  0
   -6.9827   -0.0063   -1.9472 C   0  0  0  0  0  0  0  0  0  0  0  0
   -7.6270   -1.2676   -2.5547 C   0  0  2  0  0  0  0  0  0  0  0  0
   -7.7580   -2.3845   -1.5125 C   0  0  0  0  0  0  0  0  0  0  0  0
   -6.8683   -1.7555   -3.7945 C   0  0  0  0  0  0  0  0  0  0  0  0
   -5.3853   -2.0277   -3.5266 C   0  0  0  0  0  0  0  0  0  0  0  0
   -0.6423    1.4407   -1.2300 N   0  0  0  0  0  0  0  0  0  0  0  0
    0.1076    1.8368   -0.0853 C   0  0  2  0  0  0  0  0  0  0  0  0
    1.2340    2.5901   -0.5612 N   0  0  0  0  0  0  0  0  0  0  0  0
    1.6441    3.7595    0.2282 C   0  0  1  0  0  0  0  0  0  0  0  0
    0.6379    4.9212    0.1396 C   0  0  0  0  0  0  0  0  0  0  0  0
    1.1535    6.1634    0.8666 C   0  0  0  0  0  0  0  0  0  0  0  0
    1.5702    5.8903    2.3200 C   0  0  1  0  0  0  0  0  0  0  0  0
    0.3510    5.6982    3.2331 C   0  0  0  0  0  0  0  0  0  0  0  0
    2.5354    4.6967    2.4022 C   0  0  0  0  0  0  0  0  0  0  0  0
    2.0116    3.4494    1.6850 C   0  0  0  0  0  0  0  0  0  0  0  0
    0.4975    0.6913    0.6652 N   0  0  0  0  0  0  0  0  0  0  0  0
    2.4768   -3.4973    1.2972 C   0  0  0  0  0  0  0  0  0  0  0  0
    3.3553   -3.2465    2.5213 C   0  0  0  0  0  0  0  0  0  0  0  0
  1  2  1  0
  2  3  1  0
  3  4  2  0
  5  3  1  6
  5  6  1  0
  6  7  1  0
  7  8  1  0
  8  9  1  1
 10  9  1  1
 10 11  1  0
 11 12  1  0
 12 13  1  6
 13 14  1  0
 14 15  2  0
 16 15  1  6
 16 17  1  0
 17 18  1  0
 18 19  1  0
 19 20  1  1
 19 21  1  0
 21 22  1  0
 12 23  1  0
 23 24  1  0
 24 25  1  6
 26 25  1  1
 26 27  1  0
 27 28  1  0
 28 29  1  0
 29 30  1  1
 29 31  1  0
 31 32  1  0
 24 33  1  0
  8 34  1  0
 34 35  1  0
 35  5  1  0
 33 10  1  0
 22 16  1  0
 32 26  1  0
M  END
>  <energy>  (190) 
-448.22

>  <full_id>  (190) 
MOL00007291-001944-04_1

>  <mol_id>  (190) 
MOL00007291-001944-04

>  <act_mol>  (190) 
0

>  <act_conf>  (190) 
0

$$$$
MOL00007659-001908-02
     RDKit          3D

 35 35  0  0  0  0  0  0  0  0999 V2000
   -4.4551   -5.1165    1.3672 C   0  0  0  0  0  0  0  0  0  0  0  0
   -3.4050   -4.6026    0.3832 C   0  0  0  0  0  0  0  0  0  0  0  0
   -3.9285   -3.5049   -0.4543 N   0  0  0  0  0  0  0  0  0  0  0  0
   -4.7802   -4.0077   -1.5434 C   0  0  0  0  0  0  0  0  0  0  0  0
   -5.7810   -2.9467   -1.9934 C   0  0  0  0  0  0  0  0  0  0  0  0
   -2.8201   -2.6740   -0.9818 C   0  0  0  0  0  0  0  0  0  0  0  0
   -2.2219   -1.7540    0.0848 C   0  0  0  0  0  0  0  0  0  0  0  0
   -1.2651   -0.7340   -0.5101 C   0  0  0  0  0  0  0  0  0  0  0  0
   -0.9687   -0.7189   -1.7043 O   0  0  0  0  0  0  0  0  0  0  0  0
   -0.8248    0.1646    0.4345 N   0  0  0  0  0  0  0  0  0  0  0  0
    0.0124    1.2992    0.2439 C   0  0  0  0  0  0  0  0  0  0  0  0
   -0.1569    2.4130    1.0731 C   0  0  0  0  0  0  0  0  0  0  0  0
   -1.2346    2.4515    2.0069 N   0  0  0  0  0  0  0  0  0  0  0  0
   -1.1169    3.5106    3.0052 C   0  0  0  0  0  0  0  0  0  0  0  0
   -2.3663    3.6106    3.8907 C   0  0  0  0  0  0  0  0  0  0  0  0
   -2.7137    2.3248    4.6485 C   0  0  0  0  0  0  0  0  0  0  0  0
   -3.7474    1.4653    3.9006 C   0  0  0  0  0  0  0  0  0  0  0  0
   -3.6528   -0.0027    4.2964 C   0  0  0  0  0  0  0  0  0  0  0  0
   -2.4740   -0.7584    3.6769 C   0  0  0  0  0  0  0  0  0  0  0  0
   -2.3541   -1.9574    4.0513 O   0  0  0  0  0  0  0  0  0  0  0  0
   -1.7545   -0.1021    2.8621 O   0  0  0  0  0  1  0  0  0  0  0  0
    0.6066    3.5156    0.9114 N   0  0  0  0  0  0  0  0  0  0  0  0
    1.5357    3.5461   -0.0015 N   0  0  0  0  0  0  0  0  0  0  0  0
    1.7831    2.5224   -0.7736 N   0  0  0  0  0  0  0  0  0  0  0  0
    1.0563    1.3888   -0.6755 C   0  0  0  0  0  0  0  0  0  0  0  0
    1.4721    0.2527   -1.4072 N   0  0  0  0  0  0  0  0  0  0  0  0
    2.5649    0.4327   -2.3683 C   0  0  0  0  0  0  0  0  0  0  0  0
    3.9254    0.4034   -1.6599 C   0  0  0  0  0  0  0  0  0  0  0  0
    5.1290    0.3895   -2.6245 C   0  0  1  0  0  0  0  0  0  0  0  0
    5.0994    1.5547   -3.5077 N   0  0  0  0  0  0  0  0  0  0  0  0
    6.4444    0.2978   -1.8201 C   0  0  0  0  0  0  0  0  0  0  0  0
    7.6628   -0.1273   -2.6457 C   0  0  0  0  0  0  0  0  0  0  0  0
    8.3553    0.9048   -3.5329 C   0  0  0  0  0  0  0  0  0  0  0  0
    9.3549    0.4610   -4.1710 O   0  0  0  0  0  0  0  0  0  0  0  0
    7.8641    2.0706   -3.5198 O   0  0  0  0  0  1  0  0  0  0  0  0
  1  2  1  0
  2  3  1  0
  3  4  1  0
  4  5  1  0
  3  6  1  0
  6  7  1  0
  7  8  1  0
  8  9  2  0
  8 10  1  0
 10 11  1  0
 11 12  2  0
 12 13  1  0
 13 14  1  0
 14 15  1  0
 15 16  1  0
 16 17  1  0
 17 18  1  0
 18 19  1  0
 19 20  2  0
 19 21  1  0
 12 22  1  0
 22 23  2  0
 23 24  1  0
 24 25  2  0
 25 26  1  0
 26 27  1  0
 27 28  1  0
 28 29  1  0
 29 30  1  1
 29 31  1  0
 31 32  1  0
 32 33  1  0
 33 34  2  0
 33 35  1  0
 25 11  1  0
M  CHG  2  21  -1  35  -1
M  END
>  <energy>  (191) 
-0.09

>  <full_id>  (191) 
MOL00007659-001908-02_1

>  <mol_id>  (191) 
MOL00007659-001908-02

>  <act_mol>  (191) 
0

>  <act_conf>  (191) 
0

$$$$
MOL00007811-001947-04
     RDKit          3D

 22 24  0  0  0  0  0  0  0  0999 V2000
    7.7881   -1.4901    0.3496 C   0  0  0  0  0  0  0  0  0  0  0  0
    6.3612   -1.2897    0.6780 C   0  0  0  0  0  0  0  0  0  0  0  0
    5.3375   -0.6602    0.0046 C   0  0  0  0  0  0  0  0  0  0  0  0
    4.2003   -0.8027    0.8296 C   0  0  0  0  0  0  0  0  0  0  0  0
    2.9200   -0.3620    0.6349 N   0  0  0  0  0  0  0  0  0  0  0  0
    2.4550    0.3427   -0.4528 C   0  0  0  0  0  0  0  0  0  0  0  0
    3.1268    0.6844   -1.4231 O   0  0  0  0  0  0  0  0  0  0  0  0
    1.0121    0.6534   -0.3295 C   0  0  0  0  0  0  0  0  0  0  0  0
    0.2713    0.2612    0.7309 N   0  0  0  0  0  0  0  0  0  0  0  0
   -0.9419    0.7479    0.4181 N   0  0  0  0  0  0  0  0  0  0  0  0
   -0.9229    1.4087   -0.7780 C   0  0  0  0  0  0  0  0  0  0  0  0
   -2.1261    2.0558   -1.3691 C   0  0  0  0  0  0  0  0  0  0  0  0
   -3.0684    1.0487   -2.0230 C   0  0  0  0  0  0  0  0  0  0  0  0
   -3.8153    0.2116   -1.0024 C   0  0  0  0  0  0  0  0  0  0  0  0
   -3.6634    0.3416    0.2103 O   0  0  0  0  0  0  0  0  0  0  0  0
   -4.6671   -0.7073   -1.5799 N   0  0  0  0  0  0  0  0  0  0  0  0
   -5.4419   -1.6217   -0.8044 C   0  0  0  0  0  0  0  0  0  0  0  0
   -6.1060   -2.8060   -1.4514 C   0  0  0  0  0  0  0  0  0  0  0  0
   -4.9354   -3.0113   -0.5356 C   0  0  0  0  0  0  0  0  0  0  0  0
    0.2912    1.3577   -1.2762 N   0  0  0  0  0  0  0  0  0  0  0  0
    4.4911   -1.4771    1.9451 N   0  0  0  0  0  0  0  0  0  0  0  0
    5.7984   -1.7579    1.8309 N   0  0  0  0  0  0  0  0  0  0  0  0
  1  2  1  0
  2  3  2  0
  3  4  1  0
  4  5  1  0
  5  6  1  0
  6  7  2  0
  6  8  1  0
  8  9  2  0
  9 10  1  0
 10 11  1  0
 11 12  1  0
 12 13  1  0
 13 14  1  0
 14 15  2  0
 14 16  1  0
 17 16  1  0
 17 18  1  0
 18 19  1  0
 11 20  2  0
  4 21  2  0
 21 22  1  0
 22  2  1  0
 20  8  1  0
 19 17  1  0
M  END
>  <energy>  (192) 
-5.62

>  <full_id>  (192) 
MOL00007811-001947-04_1

>  <mol_id>  (192) 
MOL00007811-001947-04

>  <act_mol>  (192) 
0

>  <act_conf>  (192) 
0

$$$$
MOL00007772-001500-02
     RDKit          3D

 22 22  0  0  0  0  0  0  0  0999 V2000
   -2.4344    2.6451   -0.6822 C   0  0  0  0  0  0  0  0  0  0  0  0
   -1.2838    1.7586   -0.8036 N   0  0  0  0  0  0  0  0  0  0  0  0
   -1.4911    0.3642   -0.7857 C   0  0  0  0  0  0  0  0  0  0  0  0
   -2.4798   -0.1686    0.0642 C   0  0  0  0  0  0  0  0  0  0  0  0
   -2.6358   -1.5415    0.2353 C   0  0  0  0  0  0  0  0  0  0  0  0
   -3.9820   -2.1957    1.3871 Br  0  0  0  0  0  0  0  0  0  0  0  0
   -1.7927   -2.4285   -0.4142 C   0  0  0  0  0  0  0  0  0  0  0  0
   -0.7856   -1.9422   -1.2540 C   0  0  0  0  0  0  0  0  0  0  0  0
    0.3410   -3.2911   -1.9942 Br  0  0  0  0  0  0  0  0  0  0  0  0
   -0.6319   -0.5533   -1.4495 C   0  0  0  0  0  0  0  0  0  0  0  0
    0.5874    0.0362   -2.6108 S   0  0  0  0  0  6  0  0  0  0  0  0
    0.4983    1.4789   -2.7186 O   0  0  0  0  0  0  0  0  0  0  0  0
    0.5154   -0.7779   -3.8032 O   0  0  0  0  0  0  0  0  0  0  0  0
    2.0364   -0.3219   -1.8473 N   0  0  0  0  0  0  0  0  0  0  0  0
    2.5723    0.6169   -0.8586 C   0  0  0  0  0  0  0  0  0  0  0  0
    3.3747   -0.1359    0.1973 C   0  0  0  0  0  0  0  0  0  0  0  0
    2.5106   -0.9830    1.1327 C   0  0  0  0  0  0  0  0  0  0  0  0
    1.5110   -0.2142    1.8381 N   0  0  0  0  0  0  0  0  0  0  0  0
    1.8047    0.6547    2.8640 C   0  0  0  0  0  0  0  0  0  0  0  0
    2.9433    0.8795    3.2604 O   0  0  0  0  0  0  0  0  0  0  0  0
    0.5693    1.3167    3.4874 C   0  0  0  0  0  0  0  0  0  0  0  0
   -0.6386    1.0887    2.6654 N   0  0  0  0  0  0  0  0  0  0  0  0
  1  2  1  0
  2  3  1  0
  3  4  2  0
  4  5  1  0
  5  6  1  0
  5  7  2  0
  7  8  1  0
  8  9  1  0
  8 10  2  0
 10 11  1  0
 11 12  2  0
 11 13  2  0
 11 14  1  0
 14 15  1  0
 15 16  1  0
 16 17  1  0
 17 18  1  0
 18 19  1  0
 19 20  2  0
 19 21  1  0
 21 22  1  0
 10  3  1  0
M  END
>  <energy>  (193) 
-32.19

>  <full_id>  (193) 
MOL00007772-001500-02_1

>  <mol_id>  (193) 
MOL00007772-001500-02

>  <act_mol>  (193) 
0

>  <act_conf>  (193) 
0

$$$$
MOL00007857-000033-00
     RDKit          3D

 24 26  0  0  0  0  0  0  0  0999 V2000
   -3.6204   -3.0700    0.3321 C   0  0  0  0  0  0  0  0  0  0  0  0
   -3.0760   -1.7558    0.2752 O   0  0  0  0  0  0  0  0  0  0  0  0
   -4.0456   -0.7638    0.3375 C   0  0  0  0  0  0  0  0  0  0  0  0
   -5.3481   -1.1193    0.4411 N   0  0  0  0  0  0  0  0  0  0  0  0
   -6.2414   -0.1099    0.4973 C   0  0  0  0  0  0  0  0  0  0  0  0
   -5.8943    1.2308    0.4550 C   0  0  0  0  0  0  0  0  0  0  0  0
   -4.5456    1.5690    0.3480 C   0  0  0  0  0  0  0  0  0  0  0  0
   -3.5873    0.5613    0.2868 C   0  0  0  0  0  0  0  0  0  0  0  0
   -2.2023    0.7949    0.1783 N   0  0  0  0  0  0  0  0  0  0  0  0
   -1.5338    1.9981    0.1126 C   0  0  0  0  0  0  0  0  0  0  0  0
   -2.0273    3.1193    0.1365 O   0  0  0  0  0  0  0  0  0  0  0  0
   -0.0468    1.8348    0.0009 C   0  0  0  0  0  0  0  0  0  0  0  0
    0.7753    2.9387   -0.0768 C   0  0  0  0  0  0  0  0  0  0  0  0
    2.1452    2.7158   -0.1743 C   0  0  0  0  0  0  0  0  0  0  0  0
    2.6742    1.4118   -0.1930 C   0  0  0  0  0  0  0  0  0  0  0  0
    1.7667    0.3513   -0.1252 C   0  0  0  0  0  0  0  0  0  0  0  0
    0.4203    0.5577   -0.0182 N   0  0  0  0  0  0  0  0  0  0  0  0
    2.1116   -1.1067   -0.1239 C   0  0  0  0  0  0  0  0  0  0  0  0
    3.3591   -1.5105   -0.8870 C   0  0  0  0  0  0  0  0  0  0  0  0
    4.6003   -1.1155   -0.1090 C   0  0  1  0  0  0  0  0  0  0  0  0
    5.7251   -1.9675   -0.5685 N   0  0  0  0  0  0  0  0  0  0  0  0
    4.9847    0.3530   -0.3035 C   0  0  0  0  0  0  0  0  0  0  0  0
    6.1724    0.6807   -0.4308 O   0  0  0  0  0  0  0  0  0  0  0  0
    4.0731    1.3561   -0.2922 N   0  0  0  0  0  0  0  0  0  0  0  0
  1  2  1  0
  2  3  1  0
  3  4  2  0
  4  5  1  0
  5  6  2  0
  6  7  1  0
  7  8  2  0
  8  9  1  0
  9 10  1  0
 10 11  2  0
 10 12  1  0
 12 13  2  0
 13 14  1  0
 14 15  2  0
 15 16  1  0
 16 17  2  0
 16 18  1  0
 18 19  1  0
 19 20  1  0
 20 21  1  6
 20 22  1  0
 22 23  2  0
 22 24  1  0
  8  3  1  0
 17 12  1  0
 24 15  1  0
M  END
>  <energy>  (194) 
101.97

>  <full_id>  (194) 
MOL00007857-000033-00_1

>  <mol_id>  (194) 
MOL00007857-000033-00

>  <act_mol>  (194) 
0

>  <act_conf>  (194) 
0

$$$$
MOL00007901-001154-03
     RDKit          3D

 26 29  0  0  0  0  0  0  0  0999 V2000
    8.0643   -2.2816    0.1324 C   0  0  0  0  0  0  0  0  0  0  0  0
    6.7669   -1.5695    0.1275 C   0  0  0  0  0  0  0  0  0  0  0  0
    5.6013   -2.1670   -0.2533 N   0  0  0  0  0  0  0  0  0  0  0  0
    4.5320   -1.3618   -0.1909 N   0  0  0  0  0  0  0  0  0  0  0  0
    5.0198   -0.1805    0.2513 C   0  0  0  0  0  0  0  0  0  0  0  0
    4.1588    0.9928    0.4607 C   0  0  0  0  0  0  0  0  0  0  0  0
    4.5642    2.0794    0.8604 O   0  0  0  0  0  0  0  0  0  0  0  0
    2.8482    0.7451    0.1612 O   0  0  0  0  0  0  0  0  0  0  0  0
    1.9791    1.8658    0.3524 C   0  0  0  0  0  0  0  0  0  0  0  0
    0.5461    1.5206    0.0037 C   0  0  0  0  0  0  0  0  0  0  0  0
    0.1889    0.2367   -0.4410 C   0  0  0  0  0  0  0  0  0  0  0  0
   -1.1362   -0.0741   -0.7605 C   0  0  0  0  0  0  0  0  0  0  0  0
   -2.1437    0.8880   -0.6438 C   0  0  0  0  0  0  0  0  0  0  0  0
   -3.5780    0.5488   -0.9825 C   0  0  0  0  0  0  0  0  0  0  0  0
   -4.2554   -0.3757    0.0233 C   0  0  2  0  0  0  0  0  0  0  0  0
   -4.1648    0.0371    1.5073 C   0  0  0  0  0  0  0  0  0  0  0  0
   -5.3188   -0.6770    2.1232 N   0  0  0  0  0  0  0  0  0  0  0  0
   -5.8464   -1.5010    1.0026 C   0  0  2  0  0  0  0  0  0  0  0  0
   -4.8020   -2.5422    0.5699 C   0  0  0  0  0  0  0  0  0  0  0  0
   -3.7779   -1.7524   -0.0895 O   0  0  0  0  0  0  0  0  0  0  0  0
   -5.7577   -0.5334   -0.1583 C   0  0  0  0  0  0  0  0  0  0  0  0
   -1.7981    2.1708   -0.2023 C   0  0  0  0  0  0  0  0  0  0  0  0
   -0.4708    2.4827    0.1175 C   0  0  0  0  0  0  0  0  0  0  0  0
   -0.1388    4.0919    0.6577 Cl  0  0  0  0  0  0  0  0  0  0  0  0
    6.4238   -0.2777    0.4615 C   0  0  0  0  0  0  0  0  0  0  0  0
    7.4789    0.9343    1.0100 Cl  0  0  0  0  0  0  0  0  0  0  0  0
  1  2  1  0
  2  3  1  0
  3  4  1  0
  4  5  2  0
  5  6  1  0
  6  7  2  0
  6  8  1  0
  8  9  1  0
  9 10  1  0
 10 11  2  0
 11 12  1  0
 12 13  2  0
 13 14  1  0
 15 14  1  6
 15 16  1  0
 16 17  1  0
 17 18  1  0
 18 19  1  6
 19 20  1  0
 18 21  1  0
 13 22  1  0
 22 23  2  0
 23 24  1  0
  5 25  1  0
 25 26  1  0
 25  2  2  0
 23 10  1  0
 20 15  1  0
 21 15  1  0
M  END
>  <energy>  (195) 
132.89

>  <full_id>  (195) 
MOL00007901-001154-03_1

>  <mol_id>  (195) 
MOL00007901-001154-03

>  <act_mol>  (195) 
0

>  <act_conf>  (195) 
0

$$$$
MOL00008024-000179-04
     RDKit          3D

 25 26  0  0  0  0  0  0  0  0999 V2000
   -0.0222   -4.0432    1.7431 C   0  0  0  0  0  0  0  0  0  0  0  0
   -0.6468   -2.7110    2.1302 C   0  0  0  0  0  0  0  0  0  0  0  0
   -1.2808   -2.0208    0.9210 C   0  0  0  0  0  0  0  0  0  0  0  0
   -1.8262   -0.6344    1.2939 C   0  0  0  0  0  0  0  0  0  0  0  0
   -2.3608    0.0709    0.1072 N   0  0  0  0  0  0  0  0  0  0  0  0
   -3.7217   -0.4117   -0.2206 C   0  0  0  0  0  0  0  0  0  0  0  0
   -4.1200   -0.1155   -1.6857 C   0  0  0  0  0  0  0  0  0  0  0  0
   -5.4514   -0.6238   -2.0159 N   0  0  0  0  0  0  0  0  0  0  0  0
   -2.3978    1.5404    0.3753 C   0  0  0  0  0  0  0  0  0  0  0  0
   -1.0034    2.1673    0.2313 C   0  0  0  0  0  0  0  0  0  0  0  0
   -0.6663    3.1829    0.8347 O   0  0  0  0  0  0  0  0  0  0  0  0
   -0.1995    1.5274   -0.6789 N   0  0  0  0  0  0  0  0  0  0  0  0
    1.1586    1.9472   -0.9059 C   0  0  0  0  0  0  0  0  0  0  0  0
    1.7973    1.0011   -1.8529 C   0  0  0  0  0  0  0  0  0  0  0  0
    1.5775    0.9261   -3.2497 C   0  0  0  0  0  0  0  0  0  0  0  0
    2.2903   -0.0390   -3.8310 N   0  0  0  0  0  0  0  0  0  0  0  0
    2.9918   -0.5673   -2.8165 N   0  0  0  0  0  0  0  0  0  0  0  0
    2.7488    0.0215   -1.6012 C   0  0  0  0  0  0  0  0  0  0  0  0
    3.4246   -0.3953   -0.3793 C   0  0  0  0  0  0  0  0  0  0  0  0
    2.6862   -0.7604    0.7518 C   0  0  0  0  0  0  0  0  0  0  0  0
    3.3338   -1.1552    1.9252 C   0  0  0  0  0  0  0  0  0  0  0  0
    4.7261   -1.1813    1.9711 C   0  0  0  0  0  0  0  0  0  0  0  0
    5.5227   -1.6649    3.4170 Cl  0  0  0  0  0  0  0  0  0  0  0  0
    5.4757   -0.8149    0.8547 C   0  0  0  0  0  0  0  0  0  0  0  0
    4.8248   -0.4236   -0.3183 C   0  0  0  0  0  0  0  0  0  0  0  0
  1  2  1  0
  2  3  1  0
  3  4  1  0
  4  5  1  0
  5  6  1  0
  6  7  1  0
  7  8  1  0
  5  9  1  0
  9 10  1  0
 10 11  2  0
 10 12  1  0
 12 13  1  0
 13 14  1  0
 14 15  1  0
 15 16  2  0
 16 17  1  0
 17 18  1  0
 18 19  1  0
 19 20  2  0
 20 21  1  0
 21 22  2  0
 22 23  1  0
 22 24  1  0
 24 25  2  0
 18 14  2  0
 25 19  1  0
M  END
>  <energy>  (196) 
45.41

>  <full_id>  (196) 
MOL00008024-000179-04_1

>  <mol_id>  (196) 
MOL00008024-000179-04

>  <act_mol>  (196) 
0

>  <act_conf>  (196) 
0

$$$$
MOL00007931-000548-04
     RDKit          3D

 28 30  0  0  0  0  0  0  0  0999 V2000
   -6.0956   -0.3544   -0.0051 C   0  0  0  0  0  0  0  0  0  0  0  0
   -4.6104   -0.6383    0.1556 C   0  0  0  0  0  0  0  0  0  0  0  0
   -3.9981   -1.1632   -1.1449 C   0  0  0  0  0  0  0  0  0  0  0  0
   -2.5138   -1.4870   -0.9994 C   0  0  0  0  0  0  0  0  0  0  0  0
   -1.7142   -0.2950   -0.7922 N   0  0  0  0  0  0  0  0  0  0  0  0
   -0.4286   -0.4089   -0.3114 C   0  0  0  0  0  0  0  0  0  0  0  0
    0.1314   -1.4478    0.0165 O   0  0  0  0  0  0  0  0  0  0  0  0
    0.2852    0.8089   -0.2940 N   0  0  0  0  0  0  0  0  0  0  0  0
    1.6798    0.8945   -0.2319 C   0  0  0  0  0  0  0  0  0  0  0  0
    2.4680   -0.2249   -0.0838 N   0  0  0  0  0  0  0  0  0  0  0  0
    3.8439   -0.1990   -0.0115 C   0  0  0  0  0  0  0  0  0  0  0  0
    4.5570    0.7945   -0.0892 O   0  0  0  0  0  0  0  0  0  0  0  0
    4.4017   -1.5285    0.1776 C   0  0  0  0  0  0  0  0  0  0  0  0
    5.7068   -1.9535    0.3360 C   0  0  0  0  0  0  0  0  0  0  0  0
    5.6654   -3.3603    0.4872 C   0  0  0  0  0  0  0  0  0  0  0  0
    4.3377   -3.7213    0.4072 C   0  0  0  0  0  0  0  0  0  0  0  0
    3.6265   -5.0182    0.4800 C   0  0  0  0  0  0  0  0  0  0  0  0
    2.6852   -4.9411    1.5429 O   0  0  0  0  0  0  0  0  0  0  0  0
    3.5616   -2.6137    0.2199 O   0  0  0  0  0  0  0  0  0  0  0  0
    2.0870    2.1327   -0.3706 N   0  0  0  0  0  0  0  0  0  0  0  0
    0.9614    2.9080   -0.4148 C   0  0  0  0  0  0  0  0  0  0  0  0
    0.8328    4.3047   -0.5034 C   0  0  0  0  0  0  0  0  0  0  0  0
    1.9121    5.0935   -0.6040 F   0  0  0  0  0  0  0  0  0  0  0  0
   -0.4318    4.8932   -0.4671 C   0  0  0  0  0  0  0  0  0  0  0  0
   -1.5795    4.1069   -0.3344 C   0  0  0  0  0  0  0  0  0  0  0  0
   -2.9275    4.7622   -0.2217 C   0  0  0  0  0  0  0  0  0  0  0  0
   -1.4689    2.7077   -0.2375 C   0  0  0  0  0  0  0  0  0  0  0  0
   -0.1883    2.1234   -0.3226 C   0  0  0  0  0  0  0  0  0  0  0  0
  1  2  1  0
  2  3  1  0
  3  4  1  0
  4  5  1  0
  5  6  1  0
  6  7  2  0
  6  8  1  0
  8  9  1  0
  9 10  1  0
 10 11  1  0
 11 12  2  0
 11 13  1  0
 13 14  2  0
 14 15  1  0
 15 16  2  0
 16 17  1  0
 17 18  1  0
 16 19  1  0
  9 20  2  0
 20 21  1  0
 21 22  2  0
 22 23  1  0
 22 24  1  0
 24 25  2  0
 25 26  1  0
 25 27  1  0
 27 28  2  0
 28  8  1  0
 19 13  1  0
 28 21  1  0
M  END
>  <energy>  (197) 
38.97

>  <full_id>  (197) 
MOL00007931-000548-04_1

>  <mol_id>  (197) 
MOL00007931-000548-04

>  <act_mol>  (197) 
0

>  <act_conf>  (197) 
0

$$$$
MOL00007905-001172-04
     RDKit          3D

 33 35  0  0  0  0  0  0  0  0999 V2000
    1.5045    2.4542    2.6727 C   0  0  0  0  0  0  0  0  0  0  0  0
    0.9432    1.3003    1.9597 N   0  0  0  0  0  0  0  0  0  0  0  0
    0.3563    0.3247    2.9259 C   0  0  0  0  0  0  0  0  0  0  0  0
   -0.9482    0.8197    3.5953 C   0  0  0  0  0  0  0  0  0  0  0  0
   -1.8822    1.3693    2.6000 N   0  0  0  0  0  0  0  0  0  0  0  0
   -2.6413    0.4109    1.9033 C   0  0  0  0  0  0  0  0  0  0  0  0
   -3.4970    0.8508    0.9154 C   0  0  0  0  0  0  0  0  0  0  0  0
   -4.2679   -0.0914    0.2592 C   0  0  0  0  0  0  0  0  0  0  0  0
   -5.2267    0.3211   -0.8327 C   0  0  0  0  0  0  0  0  0  0  0  0
   -6.4240    1.1837   -0.5037 C   0  0  0  0  0  0  0  0  0  0  0  0
   -6.6234   -0.2562   -0.8689 C   0  0  0  0  0  0  0  0  0  0  0  0
   -4.1685   -1.4014    0.5685 N   0  0  0  0  0  0  0  0  0  0  0  0
   -3.3148   -1.7415    1.5396 C   0  0  0  0  0  0  0  0  0  0  0  0
   -3.2624   -3.1006    1.7925 N   0  0  0  0  0  0  0  0  0  0  0  0
   -2.4270   -3.7349    2.6952 C   0  0  0  0  0  0  0  0  0  0  0  0
   -1.5809   -3.1871    3.4023 O   0  0  0  0  0  0  0  0  0  0  0  0
   -2.6481   -5.2562    2.7177 C   0  0  0  0  0  0  0  0  0  0  0  0
   -3.6787   -5.6318    1.9011 F   0  0  0  0  0  0  0  0  0  0  0  0
   -1.5582   -5.9484    2.2873 F   0  0  0  0  0  0  0  0  0  0  0  0
   -2.9533   -5.7305    3.9555 F   0  0  0  0  0  0  0  0  0  0  0  0
   -2.5611   -0.8846    2.2222 N   0  0  0  0  0  0  0  0  0  0  0  0
    1.9869    0.6112    1.1633 C   0  0  0  0  0  0  0  0  0  0  0  0
    2.5618    1.4404   -0.0080 C   0  0  0  0  0  0  0  0  0  0  0  0
    3.4407    0.6061   -0.8189 N   0  0  0  0  0  0  0  0  0  0  0  0
    3.9986    1.2437   -1.9137 C   0  0  0  0  0  0  0  0  0  0  0  0
    4.1845    0.4762   -2.9992 N   0  0  0  0  0  0  0  0  0  0  0  0
    4.7566    1.0549   -4.0802 C   0  0  0  0  0  0  0  0  0  0  0  0
    5.1355    2.3731   -4.0998 C   0  0  0  0  0  0  0  0  0  0  0  0
    5.7457    2.9717   -5.2600 N   0  0  0  0  0  4  0  0  0  0  0  0
    5.9342    2.2485   -6.2473 O   0  0  0  0  0  0  0  0  0  0  0  0
    6.0416    4.1723   -5.1976 O   0  0  0  0  0  1  0  0  0  0  0  0
    4.9005    3.0906   -2.9545 C   0  0  0  0  0  0  0  0  0  0  0  0
    4.3308    2.5440   -1.8566 N   0  0  0  0  0  0  0  0  0  0  0  0
  1  2  1  0
  2  3  1  0
  3  4  1  0
  4  5  1  0
  5  6  1  0
  6  7  2  0
  7  8  1  0
  9  8  1  0
  9 10  1  0
 10 11  1  0
  8 12  2  0
 12 13  1  0
 13 14  1  0
 14 15  1  0
 15 16  2  0
 15 17  1  0
 17 18  1  0
 17 19  1  0
 17 20  1  0
 13 21  2  0
  2 22  1  0
 22 23  1  0
 23 24  1  0
 24 25  1  0
 25 26  2  0
 26 27  1  0
 27 28  2  0
 28 29  1  0
 29 30  2  0
 29 31  1  0
 28 32  1  0
 32 33  2  0
 21  6  1  0
 33 25  1  0
 11  9  1  0
M  CHG  2  29   1  31  -1
M  END
>  <energy>  (198) 
-73.03

>  <full_id>  (198) 
MOL00007905-001172-04_1

>  <mol_id>  (198) 
MOL00007905-001172-04

>  <act_mol>  (198) 
0

>  <act_conf>  (198) 
0

$$$$
MOL00008136-001492-04
     RDKit          3D

 30 32  0  0  0  0  0  0  0  0999 V2000
    3.1851    2.7382    1.8115 C   0  0  0  0  0  0  0  0  0  0  0  0
    3.9035    1.4025    1.7005 C   0  0  0  0  0  0  0  0  0  0  0  0
    5.0097    1.4489    0.7475 N   0  0  0  0  0  0  0  0  0  0  0  0
    4.9839    1.1494   -0.5730 C   0  0  0  0  0  0  0  0  0  0  0  0
    3.7512    0.6396   -1.2897 C   0  0  0  0  0  0  0  0  0  0  0  0
    2.9287    1.7966   -1.6763 N   0  0  0  0  0  0  0  0  0  0  0  0
    1.7556    1.3912   -2.4516 C   0  0  0  0  0  0  0  0  0  0  0  0
    0.7111    0.6905   -1.6130 C   0  0  0  0  0  0  0  0  0  0  0  0
    0.3765   -0.6475   -1.8665 C   0  0  0  0  0  0  0  0  0  0  0  0
   -0.5858   -1.3071   -1.0919 C   0  0  0  0  0  0  0  0  0  0  0  0
   -0.9265   -2.7400   -1.3814 C   0  0  0  0  0  0  0  0  0  0  0  0
   -1.2405   -0.5879   -0.0768 C   0  0  0  0  0  0  0  0  0  0  0  0
   -2.1947   -1.2227    0.6908 O   0  0  0  0  0  0  0  0  0  0  0  0
   -3.4985   -1.2129    0.2359 C   0  0  0  0  0  0  0  0  0  0  0  0
   -3.9854   -0.4380   -0.8211 C   0  0  0  0  0  0  0  0  0  0  0  0
   -5.3326   -0.5219   -1.1882 C   0  0  0  0  0  0  0  0  0  0  0  0
   -6.2061   -1.3714   -0.4969 C   0  0  0  0  0  0  0  0  0  0  0  0
   -7.6274   -1.4246   -0.9339 C   0  0  0  0  0  0  0  0  0  0  0  0
   -8.5495   -1.8925   -0.0382 N   0  0  0  0  0  0  0  0  0  0  0  0
   -7.9763   -1.0350   -2.0417 O   0  0  0  0  0  0  0  0  0  0  0  0
   -5.7167   -2.1508    0.5586 C   0  0  0  0  0  0  0  0  0  0  0  0
   -4.3692   -2.0644    0.9233 C   0  0  0  0  0  0  0  0  0  0  0  0
   -0.8977    0.7430    0.2176 C   0  0  0  0  0  0  0  0  0  0  0  0
   -1.5643    1.3226    1.2657 O   0  0  0  0  0  0  0  0  0  0  0  0
   -1.2544    2.6758    1.5699 C   0  0  0  0  0  0  0  0  0  0  0  0
    0.0731    1.3740   -0.5629 C   0  0  0  0  0  0  0  0  0  0  0  0
    6.1100    1.3572   -1.2017 N   0  0  0  0  0  0  0  0  0  0  0  0
    6.9500    1.8181   -0.2326 N   0  0  0  0  0  0  0  0  0  0  0  0
    6.2867    1.8998    0.9816 C   0  0  0  0  0  0  0  0  0  0  0  0
    6.9921    2.4482    2.3772 S   0  0  0  0  0  0  0  0  0  0  0  0
  1  2  1  0
  2  3  1  0
  3  4  1  0
  4  5  1  0
  5  6  1  0
  6  7  1  0
  7  8  1  0
  8  9  2  0
  9 10  1  0
 10 11  1  0
 10 12  2  0
 12 13  1  0
 13 14  1  0
 14 15  2  0
 15 16  1  0
 16 17  2  0
 17 18  1  0
 18 19  1  0
 18 20  2  0
 17 21  1  0
 21 22  2  0
 12 23  1  0
 23 24  1  0
 24 25  1  0
 23 26  2  0
  4 27  2  0
 27 28  1  0
 28 29  1  0
 29 30  2  0
 29  3  1  0
 26  8  1  0
 22 14  1  0
M  END
>  <energy>  (199) 
71.89

>  <full_id>  (199) 
MOL00008136-001492-04_1

>  <mol_id>  (199) 
MOL00008136-001492-04

>  <act_mol>  (199) 
0

>  <act_conf>  (199) 
0

$$$$
MOL00007882-000515-04
     RDKit          3D

 31 35  0  0  0  0  0  0  0  0999 V2000
    9.7659   -1.5011    0.3878 C   0  0  0  0  0  0  0  0  0  0  0  0
    9.2510   -0.2249    1.0328 C   0  0  0  0  0  0  0  0  0  0  0  0
    8.0447    0.2912    0.3308 C   0  0  0  0  0  0  0  0  0  0  0  0
    8.0191    1.1309   -0.6808 N   0  0  0  0  0  0  0  0  0  0  0  0
    6.6906    1.3012   -0.9808 C   0  0  0  0  0  0  0  0  0  0  0  0
    5.8754    0.5583   -0.1450 C   0  0  0  0  0  0  0  0  0  0  0  0
    4.4203    0.3930   -0.0509 C   0  0  0  0  0  0  0  0  0  0  0  0
    3.5850    1.0836   -0.9355 C   0  0  0  0  0  0  0  0  0  0  0  0
    2.1930    0.9501   -0.8734 C   0  0  0  0  0  0  0  0  0  0  0  0
    1.4805    1.6435   -1.7746 F   0  0  0  0  0  0  0  0  0  0  0  0
    1.5632    0.1276    0.0698 C   0  0  0  0  0  0  0  0  0  0  0  0
    0.0994   -0.0188    0.1516 C   0  0  0  0  0  0  0  0  0  0  0  0
   -0.6810    0.8073   -0.5639 N   0  0  0  0  0  0  0  0  0  0  0  0
   -2.0182    0.6452   -0.4498 C   0  0  0  0  0  0  0  0  0  0  0  0
   -2.6262   -0.3053    0.3458 C   0  0  0  0  0  0  0  0  0  0  0  0
   -4.0704   -0.4670    0.4590 C   0  0  0  0  0  0  0  0  0  0  0  0
   -4.8556   -1.1388    1.3803 C   0  0  0  0  0  0  0  0  0  0  0  0
   -6.1906   -1.0307    1.0877 N   0  0  0  0  0  0  0  0  0  0  0  0
   -6.2521   -0.3006   -0.0051 C   0  0  0  0  0  0  0  0  0  0  0  0
   -7.4746    0.1287   -0.7462 C   0  0  1  0  0  0  0  0  0  0  0  0
   -8.0618    1.4297   -0.1916 C   0  0  0  0  0  0  0  0  0  0  0  0
   -8.2132    2.3434   -1.3999 C   0  0  0  0  0  0  0  0  0  0  0  0
   -8.1729    1.3964   -2.5799 C   0  0  0  0  0  0  0  0  0  0  0  0
   -7.1746    0.4125   -2.1647 N   0  0  0  0  0  0  0  0  0  0  0  0
   -4.9922    0.0562   -0.4183 N   0  0  0  0  0  0  0  0  0  0  0  0
   -1.7308   -1.0946    1.0412 C   0  0  0  0  0  0  0  0  0  0  0  0
   -0.3842   -0.9772    0.9688 N   0  0  0  0  0  0  0  0  0  0  0  0
    2.4088   -0.5697    0.9567 C   0  0  0  0  0  0  0  0  0  0  0  0
    3.8036   -0.4399    0.8979 C   0  0  0  0  0  0  0  0  0  0  0  0
    4.5668   -1.1491    1.7949 O   0  0  0  0  0  0  0  0  0  0  0  0
    6.7738   -0.0756    0.6839 N   0  0  0  0  0  0  0  0  0  0  0  0
  1  2  1  0
  2  3  1  0
  3  4  2  0
  4  5  1  0
  5  6  2  0
  6  7  1  0
  7  8  2  0
  8  9  1  0
  9 10  1  0
  9 11  2  0
 11 12  1  0
 12 13  2  0
 13 14  1  0
 14 15  2  0
 15 16  1  0
 16 17  2  0
 17 18  1  0
 18 19  2  0
 20 19  1  1
 20 21  1  0
 21 22  1  0
 22 23  1  0
 23 24  1  0
 19 25  1  0
 15 26  1  0
 26 27  2  0
 11 28  1  0
 28 29  2  0
 29 30  1  0
  6 31  1  0
 31  3  1  0
 29  7  1  0
 27 12  1  0
 25 16  1  0
 24 20  1  0
M  END
>  <energy>  (200) 
28.49

>  <full_id>  (200) 
MOL00007882-000515-04_1

>  <mol_id>  (200) 
MOL00007882-000515-04

>  <act_mol>  (200) 
0

>  <act_conf>  (200) 
0

$$$$
MOL00007843-000979-03
     RDKit          3D

 27 30  0  0  0  0  0  0  0  0999 V2000
   -4.3738   -1.9950   -1.1732 N   0  0  0  0  0  0  0  0  0  0  0  0
   -2.9244   -1.9590   -1.0238 C   0  0  2  0  0  0  0  0  0  0  0  0
   -2.5510   -1.5844    0.4141 C   0  0  0  0  0  0  0  0  0  0  0  0
   -2.7661   -0.0939    0.7657 C   0  0  2  0  0  0  0  0  0  0  0  0
   -4.2536    0.2606    0.9006 C   0  0  0  0  0  0  0  0  0  0  0  0
   -4.9332    1.2816   -0.3963 S   0  0  0  0  0  6  0  0  0  0  0  0
   -4.6531    2.6601   -0.0308 O   0  0  0  0  0  0  0  0  0  0  0  0
   -6.3027    0.8671   -0.6356 O   0  0  0  0  0  0  0  0  0  0  0  0
   -3.9876    0.9592   -1.8742 C   0  0  0  0  0  0  0  0  0  0  0  0
   -2.5326    0.5214   -1.6569 C   0  0  2  0  0  0  0  0  0  0  0  0
   -2.3209   -0.9674   -2.0247 C   0  0  0  0  0  0  0  0  0  0  0  0
   -2.0247    0.8179   -0.2331 C   0  0  2  0  0  0  0  0  0  0  0  0
   -0.5733    0.6557   -0.1563 N   0  0  0  0  0  0  0  0  0  0  0  0
    0.1576    1.1129    0.9201 C   0  0  0  0  0  0  0  0  0  0  0  0
   -0.3639    1.6012    1.9164 O   0  0  0  0  0  0  0  0  0  0  0  0
    1.5838    0.9867    0.7919 C   0  0  0  0  0  0  0  0  0  0  0  0
    2.4184    0.4331   -0.1591 C   0  0  0  0  0  0  0  0  0  0  0  0
    3.7494    0.6315    0.3110 C   0  0  0  0  0  0  0  0  0  0  0  0
    5.0141    0.2322   -0.3223 C   0  0  0  0  0  0  0  0  0  0  0  0
    5.0327   -0.5259   -1.5052 C   0  0  0  0  0  0  0  0  0  0  0  0
    6.2456   -0.8966   -2.0956 C   0  0  0  0  0  0  0  0  0  0  0  0
    7.4437   -0.5125   -1.5071 C   0  0  0  0  0  0  0  0  0  0  0  0
    8.6023   -0.8697   -2.0756 F   0  0  0  0  0  0  0  0  0  0  0  0
    7.4545    0.2353   -0.3383 C   0  0  0  0  0  0  0  0  0  0  0  0
    6.2430    0.6057    0.2518 C   0  0  0  0  0  0  0  0  0  0  0  0
    3.7280    1.2742    1.4893 N   0  0  0  0  0  0  0  0  0  0  0  0
    2.4284    1.4662    1.7531 N   0  0  0  0  0  0  0  0  0  0  0  0
  2  1  1  1
  2  3  1  0
  4  3  1  6
  4  5  1  0
  6  5  1  0
  6  7  2  0
  6  8  2  0
  6  9  1  0
 10  9  1  1
 10 11  1  0
 10 12  1  0
 12 13  1  6
 13 14  1  0
 14 15  2  0
 14 16  1  0
 16 17  2  0
 17 18  1  0
 18 19  1  0
 19 20  2  0
 20 21  1  0
 21 22  2  0
 22 23  1  0
 22 24  1  0
 24 25  2  0
 18 26  2  0
 26 27  1  0
 11  2  1  0
 27 16  1  0
 12  4  1  0
 25 19  1  0
M  END
>  <energy>  (201) 
-9.18

>  <full_id>  (201) 
MOL00007843-000979-03_1

>  <mol_id>  (201) 
MOL00007843-000979-03

>  <act_mol>  (201) 
0

>  <act_conf>  (201) 
0

$$$$
MOL00007805-000042-03
     RDKit          3D

 33 36  0  0  0  0  0  0  0  0999 V2000
    7.6431    2.2610   -1.8805 N   0  0  0  0  0  0  0  0  0  0  0  0
    7.9391    1.3597   -1.2108 C   0  0  0  0  0  0  0  0  0  0  0  0
    8.3443    0.2245   -0.3688 C   0  0  0  0  0  0  0  0  0  0  0  0
    7.1907   -0.3679    0.4047 C   0  0  0  0  0  0  0  0  0  0  0  0
    6.4549   -1.4382   -0.1222 C   0  0  0  0  0  0  0  0  0  0  0  0
    5.3746   -1.9713    0.5844 C   0  0  0  0  0  0  0  0  0  0  0  0
    5.0093   -1.4462    1.8301 C   0  0  0  0  0  0  0  0  0  0  0  0
    3.8220   -2.0009    2.5736 C   0  0  0  0  0  0  0  0  0  0  0  0
    2.6690   -1.1993    2.2900 O   0  0  0  0  0  0  0  0  0  0  0  0
    1.8583   -1.6588    1.2967 C   0  0  0  0  0  0  0  0  0  0  0  0
    2.0174   -2.7044    0.6836 O   0  0  0  0  0  0  0  0  0  0  0  0
    0.7179   -0.6744    1.0694 C   0  0  1  0  0  0  0  0  0  0  0  0
    0.0608   -0.8527   -0.3059 C   0  0  0  0  0  0  0  0  0  0  0  0
   -0.8869   -2.0524   -0.3883 C   0  0  0  0  0  0  0  0  0  0  0  0
   -1.9129   -2.0823    0.7499 C   0  0  2  0  0  0  0  0  0  0  0  0
   -2.9197   -1.0417    0.5806 N   0  0  0  0  0  0  0  0  0  0  0  0
   -3.9952   -1.2009   -0.2638 C   0  0  0  0  0  0  0  0  0  0  0  0
   -4.2355   -2.2526   -0.8478 O   0  0  0  0  0  0  0  0  0  0  0  0
   -4.8282   -0.0301   -0.4322 C   0  0  0  0  0  0  0  0  0  0  0  0
   -4.8006    1.2332    0.1337 C   0  0  0  0  0  0  0  0  0  0  0  0
   -5.8776    1.9989   -0.4061 C   0  0  0  0  0  0  0  0  0  0  0  0
   -6.3694    3.3092   -0.2415 C   0  0  0  0  0  0  0  0  0  0  0  0
   -5.5277    4.3094    0.8601 Cl  0  0  0  0  0  0  0  0  0  0  0  0
   -7.4844    3.7624   -0.9428 C   0  0  0  0  0  0  0  0  0  0  0  0
   -8.1245    2.8989   -1.8243 C   0  0  0  0  0  0  0  0  0  0  0  0
   -9.5053    3.4527   -2.6945 Cl  0  0  0  0  0  0  0  0  0  0  0  0
   -7.6769    1.5869   -2.0245 C   0  0  0  0  0  0  0  0  0  0  0  0
   -6.5514    1.1660   -1.3012 C   0  0  0  0  0  0  0  0  0  0  0  0
   -5.9037   -0.0454   -1.2943 N   0  0  0  0  0  0  0  0  0  0  0  0
   -1.2244   -1.9601    2.1132 C   0  0  0  0  0  0  0  0  0  0  0  0
   -0.3002   -0.7448    2.2108 C   0  0  0  0  0  0  0  0  0  0  0  0
    5.7324   -0.3648    2.3485 C   0  0  0  0  0  0  0  0  0  0  0  0
    6.8144    0.1685    1.6441 C   0  0  0  0  0  0  0  0  0  0  0  0
  1  2  3  0
  2  3  1  0
  3  4  1  0
  4  5  2  0
  5  6  1  0
  6  7  2  0
  7  8  1  0
  8  9  1  0
  9 10  1  0
 10 11  2  0
 12 10  1  1
 12 13  1  0
 13 14  1  0
 14 15  1  0
 15 16  1  6
 16 17  1  0
 17 18  2  0
 17 19  1  0
 19 20  2  0
 20 21  1  0
 21 22  2  0
 22 23  1  0
 22 24  1  0
 24 25  2  0
 25 26  1  0
 25 27  1  0
 27 28  2  0
 28 29  1  0
 15 30  1  0
 30 31  1  0
  7 32  1  0
 32 33  2  0
 33  4  1  0
 31 12  1  0
 29 19  1  0
 28 21  1  0
M  END
>  <energy>  (202) 
7.20

>  <full_id>  (202) 
MOL00007805-000042-03_1

>  <mol_id>  (202) 
MOL00007805-000042-03

>  <act_mol>  (202) 
0

>  <act_conf>  (202) 
0

$$$$
MOL00007788-000239-04
     RDKit          3D

 35 38  0  0  0  0  0  0  0  0999 V2000
    0.5657    5.1244    1.3155 C   0  0  0  0  0  0  0  0  0  0  0  0
    0.5865    3.9543    1.8570 N   0  0  0  0  0  0  0  0  0  0  0  0
   -0.2968    2.9968    1.4341 N   0  0  0  0  0  0  0  0  0  0  0  0
   -0.9276    2.9232    0.2000 C   0  0  0  0  0  0  0  0  0  0  0  0
   -0.8960    3.7721   -0.6860 O   0  0  0  0  0  0  0  0  0  0  0  0
   -1.7573    1.7224   -0.0297 C   0  0  0  0  0  0  0  0  0  0  0  0
   -2.8699    1.8417   -0.8288 C   0  0  0  0  0  0  0  0  0  0  0  0
   -3.7500    0.8425   -1.0489 N   0  0  0  0  0  0  0  0  0  0  0  0
   -3.5270   -0.3331   -0.4458 C   0  0  0  0  0  0  0  0  0  0  0  0
   -4.4384   -1.3573   -0.6062 N   0  0  0  0  0  0  0  0  0  0  0  0
   -5.4567   -1.2467   -1.6368 C   0  0  0  0  0  0  0  0  0  0  0  0
   -6.7960   -0.8662   -1.0091 C   0  0  0  0  0  0  0  0  0  0  0  0
   -7.5025   -2.0283   -0.3121 C   0  0  0  0  0  0  0  0  0  0  0  0
   -6.6899   -2.7236    0.7808 C   0  0  0  0  0  0  0  0  0  0  0  0
   -5.4667   -3.4707    0.2460 C   0  0  0  0  0  0  0  0  0  0  0  0
   -4.2163   -2.5992    0.1132 C   0  0  0  0  0  0  0  0  0  0  0  0
   -2.4466   -0.5393    0.3280 N   0  0  0  0  0  0  0  0  0  0  0  0
   -1.5605    0.4637    0.5051 C   0  0  0  0  0  0  0  0  0  0  0  0
   -0.4429    0.1069    1.2879 N   0  0  0  0  0  0  0  0  0  0  0  0
    0.9194    0.1301    0.8653 C   0  0  0  0  0  0  0  0  0  0  0  0
    1.2804    0.2373   -0.4855 C   0  0  0  0  0  0  0  0  0  0  0  0
    2.6251    0.2330   -0.8731 C   0  0  0  0  0  0  0  0  0  0  0  0
    3.6420    0.1035    0.0785 C   0  0  0  0  0  0  0  0  0  0  0  0
    5.0416    0.1107   -0.3272 C   0  0  0  0  0  0  0  0  0  0  0  0
    5.4418    0.2720   -1.6353 N   0  0  0  0  0  0  0  0  0  0  0  0
    6.7661    0.2421   -1.6425 N   0  0  0  0  0  0  0  0  0  0  0  0
    7.1082    0.0333   -0.3617 N   0  0  0  0  0  0  0  0  0  0  0  0
    8.4812    0.0485    0.0691 C   0  0  0  0  0  0  0  0  0  0  0  0
    8.9116   -1.2936    0.5592 C   0  0  0  0  0  0  0  0  0  0  0  0
    9.4658   -1.5174    1.6262 O   0  0  0  0  0  0  0  0  0  0  0  0
    8.7249   -2.2953   -0.3219 O   0  0  0  0  0  0  0  0  0  0  0  0
    6.0837   -0.0259    0.5119 N   0  0  0  0  0  0  0  0  0  0  0  0
    3.2835   -0.0338    1.4273 C   0  0  0  0  0  0  0  0  0  0  0  0
    1.9350   -0.0310    1.8302 C   0  0  0  0  0  0  0  0  0  0  0  0
    1.6094   -0.1577    3.2929 C   0  0  0  0  0  0  0  0  0  0  0  0
  1  2  2  0
  2  3  1  0
  3  4  1  0
  4  5  2  0
  4  6  1  0
  6  7  2  0
  7  8  1  0
  8  9  2  0
  9 10  1  0
 10 11  1  0
 11 12  1  0
 12 13  1  0
 13 14  1  0
 14 15  1  0
 15 16  1  0
  9 17  1  0
 17 18  2  0
 18 19  1  0
 19 20  1  0
 20 21  2  0
 21 22  1  0
 22 23  2  0
 23 24  1  0
 24 25  1  0
 25 26  2  0
 26 27  1  0
 27 28  1  0
 28 29  1  0
 29 30  2  0
 29 31  1  0
 27 32  1  0
 23 33  1  0
 33 34  2  0
 34 35  1  0
 18  6  1  0
 34 20  1  0
 16 10  1  0
 32 24  2  0
M  END
>  <energy>  (203) 
-25.26

>  <full_id>  (203) 
MOL00007788-000239-04_1

>  <mol_id>  (203) 
MOL00007788-000239-04

>  <act_mol>  (203) 
0

>  <act_conf>  (203) 
0

$$$$
MOL00008228-001717-04
     RDKit          3D

 22 24  0  0  0  0  0  0  0  0999 V2000
    8.6435    0.6789   -0.3618 C   0  0  0  0  0  0  0  0  0  0  0  0
    7.1588    0.9424   -0.1566 C   0  0  0  0  0  0  0  0  0  0  0  0
    6.3160   -0.2725   -0.5679 C   0  0  0  0  0  0  0  0  0  0  0  0
    4.8690   -0.0050   -0.5416 N   0  0  0  0  0  0  0  0  0  0  0  0
    4.1357   -1.1447   -1.1418 C   0  0  0  0  0  0  0  0  0  0  0  0
    2.6031   -0.9453   -1.1101 C   0  0  0  0  0  0  0  0  0  0  0  0
    2.1126   -0.7233    0.2602 N   0  0  0  0  0  0  0  0  0  0  0  0
    0.6488   -0.6009    0.3308 C   0  0  0  0  0  0  0  0  0  0  0  0
   -0.0153    0.5649   -0.4302 C   0  0  0  0  0  0  0  0  0  0  0  0
   -1.4517    0.5978   -0.2448 N   0  0  0  0  0  0  0  0  0  0  0  0
   -2.2983   -0.2911   -0.8701 C   0  0  0  0  0  0  0  0  0  0  0  0
   -1.9323   -1.1028   -1.7140 O   0  0  0  0  0  0  0  0  0  0  0  0
   -3.7661   -0.1395   -0.4538 C   0  0  2  0  0  0  0  0  0  0  0  0
   -4.4812    0.9288   -1.2650 C   0  0  0  0  0  0  0  0  0  0  0  0
   -5.6334    1.3543   -0.3690 C   0  0  1  0  0  0  0  0  0  0  0  0
   -6.9349    0.5863   -0.6164 C   0  0  0  0  0  0  0  0  0  0  0  0
   -7.5092    0.3822    0.7773 C   0  0  0  0  0  0  0  0  0  0  0  0
   -6.2770    0.0386    1.6002 C   0  0  0  0  0  0  0  0  0  0  0  0
   -5.1961    0.9777    1.0545 C   0  0  1  0  0  0  0  0  0  0  0  0
   -3.8698    0.3646    0.9462 N   0  0  0  0  0  0  0  0  0  0  0  0
    2.8251    0.4133    0.8629 C   0  0  0  0  0  0  0  0  0  0  0  0
    4.3610    0.2178    0.8278 C   0  0  0  0  0  0  0  0  0  0  0  0
  1  2  1  0
  2  3  1  0
  3  4  1  0
  4  5  1  0
  5  6  1  0
  6  7  1  0
  7  8  1  0
  8  9  1  0
  9 10  1  0
 10 11  1  0
 11 12  2  0
 13 11  1  6
 13 14  1  0
 15 14  1  6
 15 16  1  0
 16 17  1  0
 17 18  1  0
 19 18  1  6
 19 20  1  0
  7 21  1  0
 21 22  1  0
 22  4  1  0
 20 13  1  0
 19 15  1  0
M  END
>  <energy>  (204) 
113.15

>  <full_id>  (204) 
MOL00008228-001717-04_1

>  <mol_id>  (204) 
MOL00008228-001717-04

>  <act_mol>  (204) 
0

>  <act_conf>  (204) 
0

$$$$
MOL00008068-003652-02
     RDKit          3D

 34 37  0  0  0  0  0  0  0  0999 V2000
   11.6001   -2.3361    2.0243 C   0  0  0  0  0  0  0  0  0  0  0  0
   10.2613   -1.8751    1.8375 O   0  0  0  0  0  0  0  0  0  0  0  0
   10.0882   -1.1208    0.7230 C   0  0  0  0  0  0  0  0  0  0  0  0
   10.9561   -0.8327   -0.0860 O   0  0  0  0  0  0  0  0  0  0  0  0
    8.6720   -0.6786    0.6023 C   0  0  0  0  0  0  0  0  0  0  0  0
    8.2957    0.0362   -0.5402 C   0  0  0  0  0  0  0  0  0  0  0  0
    6.9765    0.4773   -0.6967 C   0  0  0  0  0  0  0  0  0  0  0  0
    6.0028    0.2174    0.2818 C   0  0  0  0  0  0  0  0  0  0  0  0
    4.6144    0.6841    0.1188 C   0  0  0  0  0  0  0  0  0  0  0  0
    3.5304   -0.1902    0.2934 C   0  0  0  0  0  0  0  0  0  0  0  0
    2.2126    0.2547    0.1488 C   0  0  0  0  0  0  0  0  0  0  0  0
    1.9394    1.5874   -0.1856 C   0  0  0  0  0  0  0  0  0  0  0  0
    0.5121    2.0704   -0.3181 C   0  0  0  0  0  0  0  0  0  0  0  0
   -0.2287    1.2589   -1.2856 N   0  0  0  0  0  0  0  0  0  0  0  0
   -1.5869    1.7543   -1.5500 C   0  0  1  0  0  0  0  0  0  0  0  0
   -2.1791    0.9556   -2.7248 C   0  0  0  0  0  0  0  0  0  0  0  0
   -2.4315   -0.5142   -2.3718 C   0  0  0  0  0  0  0  0  0  0  0  0
   -3.2862   -0.6954   -1.1059 C   0  0  2  0  0  0  0  0  0  0  0  0
   -4.6713   -0.3624   -1.4313 N   0  0  0  0  0  0  0  0  0  0  0  0
   -5.6466   -0.7652   -0.5331 C   0  0  0  0  0  0  0  0  0  0  0  0
   -5.4991   -1.8900    0.1740 N   0  0  0  0  0  0  0  0  0  0  0  0
   -6.4870   -2.1924    1.0276 C   0  0  0  0  0  0  0  0  0  0  0  0
   -7.6102   -1.4202    1.1874 C   0  0  0  0  0  0  0  0  0  0  0  0
   -7.6986   -0.2799    0.4115 C   0  0  0  0  0  0  0  0  0  0  0  0
   -8.8264    0.5652    0.5414 N   0  0  0  0  0  0  0  0  0  0  0  0
   -8.6594    1.8430   -0.1546 C   0  0  0  0  0  0  0  0  0  0  0  0
  -10.0827   -0.1196    0.2283 C   0  0  0  0  0  0  0  0  0  0  0  0
   -6.7045    0.0512   -0.4349 N   0  0  0  0  0  0  0  0  0  0  0  0
   -2.7584    0.1602    0.0578 C   0  0  0  0  0  0  0  0  0  0  0  0
   -2.5207    1.6200   -0.3367 C   0  0  0  0  0  0  0  0  0  0  0  0
    3.0131    2.4670   -0.3607 C   0  0  0  0  0  0  0  0  0  0  0  0
    4.3309    2.0196   -0.2105 C   0  0  0  0  0  0  0  0  0  0  0  0
    6.3959   -0.5003    1.4241 C   0  0  0  0  0  0  0  0  0  0  0  0
    7.7137   -0.9449    1.5860 C   0  0  0  0  0  0  0  0  0  0  0  0
  1  2  1  0
  2  3  1  0
  3  4  2  0
  3  5  1  0
  5  6  2  0
  6  7  1  0
  7  8  2  0
  8  9  1  0
  9 10  2  0
 10 11  1  0
 11 12  2  0
 12 13  1  0
 13 14  1  0
 15 14  1  1
 15 16  1  0
 16 17  1  0
 17 18  1  0
 18 19  1  6
 19 20  1  0
 20 21  2  0
 21 22  1  0
 22 23  2  0
 23 24  1  0
 24 25  1  0
 25 26  1  0
 25 27  1  0
 24 28  2  0
 18 29  1  0
 29 30  1  0
 12 31  1  0
 31 32  2  0
  8 33  1  0
 33 34  2  0
 34  5  1  0
 32  9  1  0
 30 15  1  0
 28 20  1  0
M  END
>  <energy>  (205) 
-62.79

>  <full_id>  (205) 
MOL00008068-003652-02_1

>  <mol_id>  (205) 
MOL00008068-003652-02

>  <act_mol>  (205) 
0

>  <act_conf>  (205) 
0

$$$$
MOL00008182-000510-04
     RDKit          3D

 36 39  0  0  0  0  0  0  0  0999 V2000
   -5.0386    5.8539   -2.3668 C   0  0  0  0  0  0  0  0  0  0  0  0
   -5.0880    4.7373   -1.4777 O   0  0  0  0  0  0  0  0  0  0  0  0
   -4.1489    3.7881   -1.7252 C   0  0  0  0  0  0  0  0  0  0  0  0
   -3.3004    3.8427   -2.6053 O   0  0  0  0  0  0  0  0  0  0  0  0
   -4.2837    2.6396   -0.7775 C   0  0  0  0  0  0  0  0  0  0  0  0
   -3.3730    1.5925   -0.8775 C   0  0  0  0  0  0  0  0  0  0  0  0
   -3.4958    0.5075   -0.0051 C   0  0  0  0  0  0  0  0  0  0  0  0
   -2.5462   -0.6063   -0.0957 C   0  0  0  0  0  0  0  0  0  0  0  0
   -2.0648   -1.2393   -1.2305 C   0  0  0  0  0  0  0  0  0  0  0  0
   -1.1080   -2.2177   -0.8407 C   0  0  0  0  0  0  0  0  0  0  0  0
   -0.3922   -3.1415   -1.7706 C   0  0  0  0  0  0  0  0  0  0  0  0
    1.0307   -2.6861   -2.0359 C   0  0  0  0  0  0  0  0  0  0  0  0
    1.9776   -3.0801   -1.3534 O   0  0  0  0  0  0  0  0  0  0  0  0
    1.1670   -1.7973   -3.0814 N   0  0  0  0  0  0  0  0  0  0  0  0
    2.4601   -1.1923   -3.3466 C   0  0  0  0  0  0  0  0  0  0  0  0
    2.6498    0.0136   -2.4189 C   0  0  0  0  0  0  0  0  0  0  0  0
    1.7681    0.8564   -2.2577 O   0  0  0  0  0  0  0  0  0  0  0  0
    3.8810    0.0578   -1.7999 N   0  0  0  0  0  0  0  0  0  0  0  0
    4.1227    0.9672   -0.7003 C   0  0  0  0  0  0  0  0  0  0  0  0
    3.7498    0.3068    0.6059 C   0  0  0  0  0  0  0  0  0  0  0  0
    2.4594    0.4713    1.1366 C   0  0  0  0  0  0  0  0  0  0  0  0
    2.0872   -0.1946    2.3045 C   0  0  0  0  0  0  0  0  0  0  0  0
    2.9946   -1.0469    2.9266 C   0  0  0  0  0  0  0  0  0  0  0  0
    2.6521   -1.7567    4.0391 O   0  0  0  0  0  0  0  0  0  0  0  0
    4.2783   -1.2206    2.4191 C   0  0  0  0  0  0  0  0  0  0  0  0
    4.6576   -0.5425    1.2603 C   0  0  0  0  0  0  0  0  0  0  0  0
   -1.0142   -2.1260    0.5394 C   0  0  0  0  0  0  0  0  0  0  0  0
   -0.2054   -2.7765    1.5256 C   0  0  0  0  0  0  0  0  0  0  0  0
    0.8257   -3.6254    1.2383 N   0  0  0  0  0  0  0  0  0  0  0  0
   -0.4427   -2.5296    2.7808 N   0  0  0  0  0  0  0  0  0  0  0  0
   -1.4459   -1.6539    3.1038 C   0  0  0  0  0  0  0  0  0  0  0  0
   -2.1784   -0.9678    2.2869 N   0  0  0  0  0  0  0  0  0  0  0  0
   -1.9327   -1.2147    0.9841 N   0  0  0  0  0  0  0  0  0  0  0  0
   -4.5371    0.5154    0.9255 C   0  0  0  0  0  0  0  0  0  0  0  0
   -5.3940    1.6033    0.9556 C   0  0  0  0  0  0  0  0  0  0  0  0
   -5.2951    2.6649    0.1290 N   0  0  0  0  0  0  0  0  0  0  0  0
  1  2  1  0
  2  3  1  0
  3  4  2  0
  3  5  1  0
  5  6  2  0
  6  7  1  0
  7  8  1  0
  8  9  2  0
  9 10  1  0
 10 11  1  0
 11 12  1  0
 12 13  2  0
 12 14  1  0
 14 15  1  0
 15 16  1  0
 16 17  2  0
 16 18  1  0
 18 19  1  0
 19 20  1  0
 20 21  2  0
 21 22  1  0
 22 23  2  0
 23 24  1  0
 23 25  1  0
 25 26  2  0
 10 27  2  0
 27 28  1  0
 28 29  1  0
 28 30  2  0
 30 31  1  0
 31 32  2  0
 32 33  1  0
  7 34  2  0
 34 35  1  0
 35 36  2  0
 36  5  1  0
 33  8  1  0
 26 20  1  0
 33 27  1  0
M  END
>  <energy>  (206) 
-46.49

>  <full_id>  (206) 
MOL00008182-000510-04_1

>  <mol_id>  (206) 
MOL00008182-000510-04

>  <act_mol>  (206) 
0

>  <act_conf>  (206) 
0

$$$$
MOL00007858-001189-02
     RDKit          3D

 34 38  0  0  0  0  0  0  0  0999 V2000
   -2.9159    2.5636    2.8741 C   0  0  0  0  0  0  0  0  0  0  0  0
   -2.6165    1.2929    2.0893 C   0  0  0  0  0  0  0  0  0  0  0  0
   -3.9013    0.5205    1.7733 C   0  0  0  0  0  0  0  0  0  0  0  0
   -3.7445   -0.7189    0.8469 C   0  0  2  0  0  0  0  0  0  0  0  0
   -3.2883   -0.3481   -0.4889 N   0  0  0  0  0  0  0  0  0  0  0  0
   -4.1919    0.1940   -1.3700 C   0  0  0  0  0  0  0  0  0  0  0  0
   -3.4831    1.2477   -2.5124 Cl  0  0  0  0  0  0  0  0  0  0  0  0
   -5.5081   -0.0667   -1.3097 C   0  0  0  0  0  0  0  0  0  0  0  0
   -5.9900   -1.0424   -0.3277 C   0  0  0  0  0  0  0  0  0  0  0  0
   -7.3222   -1.6682   -0.5941 C   0  0  0  0  0  0  0  0  0  0  0  0
   -5.1501   -1.3898    0.6713 C   0  0  0  0  0  0  0  0  0  0  0  0
   -5.1738   -2.4918    1.5133 N   0  0  0  0  0  0  0  0  0  0  0  0
   -3.8665   -2.8149    1.8406 C   0  0  0  0  0  0  0  0  0  0  0  0
   -2.9707   -1.8731    1.4695 C   0  0  0  0  0  0  0  0  0  0  0  0
   -1.5106   -1.9317    1.5666 C   0  0  0  0  0  0  0  0  0  0  0  0
   -0.8568   -2.8723    2.3302 C   0  0  0  0  0  0  0  0  0  0  0  0
    0.5148   -2.8070    2.3162 C   0  0  0  0  0  0  0  0  0  0  0  0
    1.2108   -1.8990    1.6131 N   0  0  0  0  0  0  0  0  0  0  0  0
    0.5083   -1.0172    0.8912 C   0  0  0  0  0  0  0  0  0  0  0  0
    1.1144   -0.0351    0.1210 N   0  0  0  0  0  0  0  0  0  0  0  0
    2.4185    0.2103   -0.3327 C   0  0  0  0  0  0  0  0  0  0  0  0
    3.5206   -0.5400    0.1039 C   0  0  0  0  0  0  0  0  0  0  0  0
    4.8211   -0.2560   -0.3295 C   0  0  0  0  0  0  0  0  0  0  0  0
    5.0487    0.8068   -1.1997 C   0  0  0  0  0  0  0  0  0  0  0  0
    6.4224    1.1333   -1.6622 C   0  0  0  0  0  0  0  0  0  0  0  0
    6.6326    1.9759   -2.6453 N   0  0  0  0  0  0  0  0  0  0  0  0
    8.1119    2.0082   -2.8034 C   0  0  0  0  0  0  0  0  0  0  0  0
    8.6903    1.3464   -1.5523 C   0  0  0  0  0  0  0  0  0  0  0  0
    7.5476    0.6000   -1.0737 N   0  0  0  0  0  0  0  0  0  0  0  0
    3.9666    1.5754   -1.6394 C   0  0  0  0  0  0  0  0  0  0  0  0
    2.6483    1.2908   -1.2201 C   0  0  0  0  0  0  0  0  0  0  0  0
    1.5574    2.2223   -1.7156 C   0  0  0  0  0  0  0  0  0  0  0  0
    0.2570    1.6335   -1.6710 O   0  0  0  0  0  0  0  0  0  0  0  0
   -0.8339   -1.0048    0.8601 N   0  0  0  0  0  0  0  0  0  0  0  0
  1  2  1  0
  2  3  1  0
  4  3  1  1
  4  5  1  0
  5  6  1  0
  6  7  1  0
  6  8  2  0
  8  9  1  0
  9 10  1  0
  9 11  2  0
 11 12  1  0
 12 13  1  0
 13 14  2  0
 14 15  1  0
 15 16  2  0
 16 17  1  0
 17 18  2  0
 18 19  1  0
 19 20  1  0
 20 21  1  0
 21 22  2  0
 22 23  1  0
 23 24  2  0
 24 25  1  0
 25 26  2  0
 26 27  1  0
 27 28  1  0
 28 29  1  0
 24 30  1  0
 30 31  2  0
 31 32  1  0
 32 33  1  0
 19 34  2  0
 11  4  1  0
 34 15  1  0
 14  4  1  0
 31 21  1  0
 29 25  1  0
M  END
>  <energy>  (207) 
0.40

>  <full_id>  (207) 
MOL00007858-001189-02_1

>  <mol_id>  (207) 
MOL00007858-001189-02

>  <act_mol>  (207) 
0

>  <act_conf>  (207) 
0

$$$$
MOL00008128-001456-04
     RDKit          3D

 33 37  0  0  0  0  0  0  0  0999 V2000
   -6.6426   -1.3786   -3.6221 C   0  0  0  0  0  0  0  0  0  0  0  0
   -5.3740   -1.1954   -3.0030 O   0  0  0  0  0  0  0  0  0  0  0  0
   -5.3730   -0.9782   -1.6528 C   0  0  0  0  0  0  0  0  0  0  0  0
   -6.4863   -0.9922   -0.8182 C   0  0  0  0  0  0  0  0  0  0  0  0
   -6.3443   -0.7454    0.5529 C   0  0  0  0  0  0  0  0  0  0  0  0
   -5.0875   -0.4733    1.1064 C   0  0  0  0  0  0  0  0  0  0  0  0
   -4.8714   -0.2229    2.4369 O   0  0  0  0  0  0  0  0  0  0  0  0
   -5.9832   -0.3151    3.3199 C   0  0  0  0  0  0  0  0  0  0  0  0
   -3.9488   -0.4490    0.2730 C   0  0  0  0  0  0  0  0  0  0  0  0
   -2.5589   -0.1834    0.8434 C   0  0  2  0  0  0  0  0  0  0  0  0
   -1.7783    0.8853    0.0513 C   0  0  0  0  0  0  0  0  0  0  0  0
   -0.3882    1.1319    0.6475 C   0  0  1  0  0  0  0  0  0  0  0  0
   -0.5216    1.9866    1.8878 C   0  0  0  0  0  0  0  0  0  0  0  0
   -0.6083    1.6004    3.0403 O   0  0  0  0  0  0  0  0  0  0  0  0
   -0.5687    3.2994    1.5896 O   0  0  0  0  0  0  0  0  0  0  0  0
    0.3631   -0.1645    0.9753 C   0  0  1  0  0  0  0  0  0  0  0  0
   -0.5287   -1.2379    1.5841 C   0  0  2  0  0  0  0  0  0  0  0  0
    0.2774   -2.4318    1.3484 N   0  0  0  0  0  0  0  0  0  0  0  0
    0.7739   -2.3181   -0.0237 N   0  0  0  0  0  0  0  0  0  0  0  0
    0.9781   -0.8598   -0.2524 C   0  0  2  0  0  0  0  0  0  0  0  0
    2.4443   -0.5094   -0.4318 C   0  0  0  0  0  0  0  0  0  0  0  0
    2.7968    0.5120   -1.3305 C   0  0  0  0  0  0  0  0  0  0  0  0
    4.1315    0.9008   -1.4906 C   0  0  0  0  0  0  0  0  0  0  0  0
    5.1513    0.2736   -0.7619 C   0  0  0  0  0  0  0  0  0  0  0  0
    6.5949    0.6820   -0.9349 C   0  0  0  0  0  0  0  0  0  0  0  0
    7.0902    0.3376   -2.3104 C   0  0  0  0  0  0  0  0  0  0  0  0
    7.1379    1.3821   -3.4015 C   0  0  0  0  0  0  0  0  0  0  0  0
    8.4145    0.8814   -2.7859 C   0  0  0  0  0  0  0  0  0  0  0  0
    4.8060   -0.7362    0.1432 C   0  0  0  0  0  0  0  0  0  0  0  0
    3.4741   -1.1180    0.3006 C   0  0  0  0  0  0  0  0  0  0  0  0
    3.2283   -2.1108    1.2103 O   0  0  0  0  0  0  0  0  0  0  0  0
   -1.7866   -1.4335    0.8794 N   0  0  0  0  0  0  0  0  0  0  0  0
   -4.1146   -0.7247   -1.1004 C   0  0  0  0  0  0  0  0  0  0  0  0
  1  2  1  0
  2  3  1  0
  3  4  2  0
  4  5  1  0
  5  6  2  0
  6  7  1  0
  7  8  1  0
  6  9  1  0
 10  9  1  6
 10 11  1  0
 11 12  1  0
 12 13  1  1
 13 14  2  0
 13 15  1  0
 16 12  1  6
 16 17  1  0
 17 18  1  6
 18 19  1  0
 19 20  1  0
 20 21  1  1
 21 22  2  0
 22 23  1  0
 23 24  2  0
 24 25  1  0
 26 25  1  0
 26 27  1  0
 27 28  1  0
 24 29  1  0
 29 30  2  0
 30 31  1  0
 17 32  1  0
  9 33  2  0
 33  3  1  0
 32 10  1  0
 20 16  1  0
 30 21  1  0
 28 26  1  0
M  END
>  <energy>  (208) 
10.48

>  <full_id>  (208) 
MOL00008128-001456-04_1

>  <mol_id>  (208) 
MOL00008128-001456-04

>  <act_mol>  (208) 
0

>  <act_conf>  (208) 
0

$$$$
MOL00008285-003438-02
     RDKit          3D

 32 35  0  0  0  0  0  0  0  0999 V2000
   -2.5256    7.2807   -1.0485 C   0  0  0  0  0  0  0  0  0  0  0  0
   -2.7978    6.0026   -1.8219 C   0  0  0  0  0  0  0  0  0  0  0  0
   -2.2486    4.8053   -1.1226 C   0  0  0  0  0  0  0  0  0  0  0  0
   -3.0397    4.0085   -0.3283 N   0  0  0  0  0  0  0  0  0  0  0  0
   -2.3037    2.9758    0.1797 C   0  0  0  0  0  0  0  0  0  0  0  0
   -2.7975    2.0287    0.9849 N   0  0  0  0  0  0  0  0  0  0  0  0
   -1.8647    1.1235    1.3275 C   0  0  0  0  0  0  0  0  0  0  0  0
   -2.3851   -0.1664    2.4311 S   0  0  0  0  0  0  0  0  0  0  0  0
   -1.9786   -1.5219    1.4058 C   0  0  0  0  0  0  0  0  0  0  0  0
   -2.2436   -1.5411    0.1171 N   0  0  0  0  0  0  0  0  0  0  0  0
   -1.8387   -2.7439   -0.4404 C   0  0  0  0  0  0  0  0  0  0  0  0
   -2.0635   -2.9612   -1.9016 C   0  0  0  0  0  0  0  0  0  0  0  0
   -0.7821   -2.9229   -2.7447 C   0  0  0  0  0  0  0  0  0  0  0  0
    0.0681   -4.1100   -2.5977 N   0  0  0  0  0  0  0  0  0  0  0  0
   -1.3033   -3.6416    0.4629 C   0  0  0  0  0  0  0  0  0  0  0  0
   -1.2776   -2.9546    2.0323 S   0  0  0  0  0  0  0  0  0  0  0  0
   -0.5580    1.1508    0.9864 N   0  0  0  0  0  0  0  0  0  0  0  0
   -0.0919    2.1187    0.1623 C   0  0  0  0  0  0  0  0  0  0  0  0
    1.2492    2.1183   -0.2283 N   0  0  0  0  0  0  0  0  0  0  0  0
    2.2026    1.3970    0.6141 C   0  0  0  0  0  0  0  0  0  0  0  0
    2.2029   -0.0959    0.3054 C   0  0  0  0  0  0  0  0  0  0  0  0
    3.3397   -0.8035    1.0170 C   0  0  0  0  0  0  0  0  0  0  0  0
    4.1107   -0.1936    1.7604 O   0  0  0  0  0  0  0  0  0  0  0  0
    3.4774   -2.1649    0.7767 N   0  0  0  0  0  0  0  0  0  0  0  0
    2.4450   -2.9949    0.1414 C   0  0  0  0  0  0  0  0  0  0  0  0
    3.0381   -4.2565   -0.4924 C   0  0  0  0  0  0  0  0  0  0  0  0
    3.8490   -4.9851    0.4439 O   0  0  0  0  0  0  0  0  0  0  0  0
    4.9328   -4.1645    0.9085 C   0  0  0  0  0  0  0  0  0  0  0  0
    4.4126   -2.9166    1.6195 C   0  0  0  0  0  0  0  0  0  0  0  0
   -1.0001    3.0983   -0.2733 C   0  0  0  0  0  0  0  0  0  0  0  0
   -0.9798    4.2533   -1.1051 C   0  0  0  0  0  0  0  0  0  0  0  0
    0.3824    4.8430   -1.9342 Cl  0  0  0  0  0  0  0  0  0  0  0  0
  1  2  1  0
  2  3  1  0
  3  4  1  0
  4  5  1  0
  5  6  2  0
  6  7  1  0
  7  8  1  0
  8  9  1  0
  9 10  2  0
 10 11  1  0
 11 12  1  0
 12 13  1  0
 13 14  1  0
 11 15  2  0
 15 16  1  0
  7 17  2  0
 17 18  1  0
 18 19  1  0
 19 20  1  0
 20 21  1  0
 21 22  1  0
 22 23  2  0
 22 24  1  0
 24 25  1  0
 25 26  1  0
 26 27  1  0
 27 28  1  0
 28 29  1  0
 18 30  2  0
 30 31  1  0
 31 32  1  0
 31  3  2  0
 30  5  1  0
 16  9  1  0
 29 24  1  0
M  END
>  <energy>  (209) 
-4.18

>  <full_id>  (209) 
MOL00008285-003438-02_1

>  <mol_id>  (209) 
MOL00008285-003438-02

>  <act_mol>  (209) 
0

>  <act_conf>  (209) 
0

$$$$
MOL00008917-000088-03
     RDKit          3D

 20 21  0  0  0  0  0  0  0  0999 V2000
    6.0818   -1.7625   -1.3697 C   0  0  0  0  0  0  0  0  0  0  0  0
    5.4767   -0.7596   -0.7212 C   0  0  0  0  0  0  0  0  0  0  0  0
    4.0686   -0.6276   -0.6307 C   0  0  0  0  0  0  0  0  0  0  0  0
    3.2751   -1.0245   -1.6734 N   0  0  0  0  0  0  0  0  0  0  0  0
    1.9651   -0.7870   -1.5010 N   0  0  0  0  0  0  0  0  0  0  0  0
    1.8971   -0.1922   -0.2889 C   0  0  0  0  0  0  0  0  0  0  0  0
    0.5884    0.2364    0.2571 C   0  0  0  0  0  0  0  0  0  0  0  0
    0.4867    0.7948    1.3432 O   0  0  0  0  0  0  0  0  0  0  0  0
   -0.4324   -0.0753   -0.6088 N   0  0  0  0  0  0  0  0  0  0  0  0
   -1.7687    0.1582   -0.4621 C   0  0  0  0  0  0  0  0  0  0  0  0
   -2.6294   -0.2051   -1.3834 N   0  0  0  0  0  0  0  0  0  0  0  0
   -3.9155    0.1412   -0.9990 C   0  0  0  0  0  0  0  0  0  0  0  0
   -5.0398   -0.1885   -1.9137 C   0  0  0  0  0  0  0  0  0  0  0  0
   -4.0017    0.7727    0.2315 C   0  0  0  0  0  0  0  0  0  0  0  0
   -5.1984    1.2829    0.9606 C   0  0  0  0  0  0  0  0  0  0  0  0
   -5.6782    0.2996    1.9260 N   0  0  0  0  0  0  0  0  0  0  0  0
   -2.4295    0.9277    0.9025 S   0  0  0  0  0  0  0  0  0  0  0  0
    3.1979   -0.0816    0.2979 C   0  0  0  0  0  0  0  0  0  0  0  0
    3.5265    0.4929    1.5656 C   0  0  0  0  0  0  0  0  0  0  0  0
    4.5355    0.1285    2.3685 C   0  0  0  0  0  0  0  0  0  0  0  0
  1  2  2  0
  2  3  1  0
  3  4  1  0
  4  5  1  0
  5  6  2  0
  6  7  1  0
  7  8  2  0
  7  9  1  0
  9 10  1  0
 10 11  2  0
 11 12  1  0
 12 13  1  0
 12 14  2  0
 14 15  1  0
 15 16  1  0
 14 17  1  0
  6 18  1  0
 18 19  1  0
 19 20  2  0
 18  3  2  0
 17 10  1  0
M  END
>  <energy>  (210) 
9.13

>  <full_id>  (210) 
MOL00008917-000088-03_1

>  <mol_id>  (210) 
MOL00008917-000088-03

>  <act_mol>  (210) 
0

>  <act_conf>  (210) 
0

$$$$
MOL00008260-000032-03
     RDKit          3D

 34 37  0  0  0  0  0  0  0  0999 V2000
   -3.8865   -5.8771   -1.3526 C   0  0  0  0  0  0  0  0  0  0  0  0
   -3.6955   -4.5600   -0.8015 N   0  0  0  0  0  0  0  0  0  0  0  0
   -4.4201   -4.1601    0.2654 N   0  0  0  0  0  0  0  0  0  0  0  0
   -3.9968   -2.9063    0.4645 C   0  0  0  0  0  0  0  0  0  0  0  0
   -2.9937   -2.5009   -0.4486 C   0  0  0  0  0  0  0  0  0  0  0  0
   -2.2247   -1.3416   -0.6937 C   0  0  0  0  0  0  0  0  0  0  0  0
   -2.2968   -0.1948    0.1142 N   0  0  0  0  0  0  0  0  0  0  0  0
   -1.8938   -0.3036    1.5244 C   0  0  1  0  0  0  0  0  0  0  0  0
   -0.3874   -0.5341    1.6813 C   0  0  0  0  0  0  0  0  0  0  0  0
    0.4557    0.6870    1.3213 C   0  0  0  0  0  0  0  0  0  0  0  0
    0.0265    1.9558    2.0648 C   0  0  2  0  0  0  0  0  0  0  0  0
    0.4990    1.9440    3.5172 C   0  0  0  0  0  0  0  0  0  0  0  0
    1.8511    1.9181    3.6791 N   0  0  0  0  0  0  0  0  0  0  0  0
   -0.2423    1.9550    4.4924 O   0  0  0  0  0  0  0  0  0  0  0  0
   -1.4838    2.1938    1.9414 C   0  0  0  0  0  0  0  0  0  0  0  0
   -2.3321    0.9621    2.2716 C   0  0  0  0  0  0  0  0  0  0  0  0
   -1.3582   -1.4201   -1.8110 C   0  0  0  0  0  0  0  0  0  0  0  0
   -0.5056   -0.2630   -2.1929 C   0  0  0  0  0  0  0  0  0  0  0  0
   -0.9487    0.8751   -2.0353 O   0  0  0  0  0  0  0  0  0  0  0  0
    0.8753   -0.5441   -2.7705 C   0  0  0  0  0  0  0  0  0  0  0  0
    1.9138    0.4979   -2.4159 C   0  0  0  0  0  0  0  0  0  0  0  0
    1.8450    1.7859   -2.9655 C   0  0  0  0  0  0  0  0  0  0  0  0
    2.7955    2.7523   -2.6350 C   0  0  0  0  0  0  0  0  0  0  0  0
    3.8349    2.4414   -1.7594 C   0  0  0  0  0  0  0  0  0  0  0  0
    3.9228    1.1623   -1.2159 C   0  0  0  0  0  0  0  0  0  0  0  0
    4.9922    0.8190   -0.3370 N   0  0  0  0  0  0  0  0  0  0  0  0
    5.0096    1.4634    1.2199 S   0  0  0  0  0  6  0  0  0  0  0  0
    6.2362    2.7409    1.0661 C   0  0  0  0  0  0  0  0  0  0  0  0
    3.7349    2.0645    1.5451 O   0  0  0  0  0  0  0  0  0  0  0  0
    5.5706    0.4229    2.0566 O   0  0  0  0  0  0  0  0  0  0  0  0
    2.9618    0.1963   -1.5322 C   0  0  0  0  0  0  0  0  0  0  0  0
   -1.3094   -2.5880   -2.5735 C   0  0  0  0  0  0  0  0  0  0  0  0
   -2.0138   -3.7192   -2.3407 N   0  0  0  0  0  0  0  0  0  0  0  0
   -2.8353   -3.6045   -1.2774 C   0  0  0  0  0  0  0  0  0  0  0  0
  1  2  1  0
  2  3  1  0
  3  4  2  0
  4  5  1  0
  5  6  2  0
  6  7  1  0
  8  7  1  6
  8  9  1  0
  9 10  1  0
 10 11  1  0
 11 12  1  1
 12 13  1  0
 12 14  2  0
 11 15  1  0
 15 16  1  0
  6 17  1  0
 17 18  1  0
 18 19  2  0
 18 20  1  0
 20 21  1  0
 21 22  2  0
 22 23  1  0
 23 24  2  0
 24 25  1  0
 25 26  1  0
 26 27  1  0
 27 28  1  0
 27 29  2  0
 27 30  2  0
 25 31  2  0
 17 32  2  0
 32 33  1  0
 33 34  2  0
 34  2  1  0
 34  5  1  0
 16  8  1  0
 31 21  1  0
M  END
>  <energy>  (211) 
24.38

>  <full_id>  (211) 
MOL00008260-000032-03_1

>  <mol_id>  (211) 
MOL00008260-000032-03

>  <act_mol>  (211) 
0

>  <act_conf>  (211) 
0

$$$$
MOL00008393-001715-03
     RDKit          3D

 31 33  0  0  0  0  0  0  0  0999 V2000
    5.9522    4.5864    1.7891 C   0  0  0  0  0  0  0  0  0  0  0  0
    5.3574    3.4533    1.1722 O   0  0  0  0  0  0  0  0  0  0  0  0
    6.1792    2.4002    0.8502 C   0  0  0  0  0  0  0  0  0  0  0  0
    7.5488    2.3456    1.1386 C   0  0  0  0  0  0  0  0  0  0  0  0
    8.3067    1.2281    0.7760 C   0  0  0  0  0  0  0  0  0  0  0  0
    7.7064    0.1534    0.1255 C   0  0  0  0  0  0  0  0  0  0  0  0
    6.3437    0.2029   -0.1621 C   0  0  0  0  0  0  0  0  0  0  0  0
    5.7393   -0.8820   -0.8023 N   0  0  0  0  0  0  0  0  0  0  0  0
    4.3951   -0.9020   -1.0848 C   0  0  0  0  0  0  0  0  0  0  0  0
    3.8482   -1.8767   -1.5751 O   0  0  0  0  0  0  0  0  0  0  0  0
    3.6222    0.3589   -0.7203 C   0  0  0  0  0  0  0  0  0  0  0  0
    2.1350    0.5156   -1.0258 C   0  0  0  0  0  0  0  0  0  0  0  0
    1.5939   -0.0878   -1.9385 O   0  0  0  0  0  0  0  0  0  0  0  0
    1.4951    1.4130   -0.1926 N   0  0  0  0  0  0  0  0  0  0  0  0
    0.1339    1.8407   -0.4213 C   0  0  0  0  0  0  0  0  0  0  0  0
   -0.9015    1.0026    0.3302 C   0  0  0  0  0  0  0  0  0  0  0  0
   -0.9504   -0.4750   -0.0819 C   0  0  2  0  0  0  0  0  0  0  0  0
   -1.1334   -0.5902   -1.4894 O   0  0  0  0  0  0  0  0  0  0  0  0
   -2.0645   -1.2499    0.6337 C   0  0  0  0  0  0  0  0  0  0  0  0
   -3.4759   -0.9167    0.1435 C   0  0  0  0  0  0  0  0  0  0  0  0
   -4.5420   -1.6688    0.9222 C   0  0  0  0  0  0  0  0  0  0  0  0
   -4.2749   -2.4091    1.8672 O   0  0  0  0  0  0  0  0  0  0  0  0
   -5.8416   -1.4621    0.5177 N   0  0  0  0  0  0  0  0  0  0  0  0
   -6.3148   -0.5702   -0.5298 C   0  0  0  0  0  0  0  0  0  0  0  0
   -7.7670   -0.9694   -0.7410 C   0  0  0  0  0  0  0  0  0  0  0  0
   -8.1964   -1.3803    0.6540 C   0  0  0  0  0  0  0  0  0  0  0  0
   -9.2702   -2.1917    0.6216 F   0  0  0  0  0  0  0  0  0  0  0  0
   -8.5293   -0.2823    1.3738 F   0  0  0  0  0  0  0  0  0  0  0  0
   -6.9646   -2.0566    1.2381 C   0  0  0  0  0  0  0  0  0  0  0  0
    4.1835    1.3721   -0.1116 N   0  0  0  0  0  0  0  0  0  0  0  0
    5.5625    1.3172    0.1901 C   0  0  0  0  0  0  0  0  0  0  0  0
  1  2  1  0
  2  3  1  0
  3  4  2  0
  4  5  1  0
  5  6  2  0
  6  7  1  0
  7  8  1  0
  8  9  1  0
  9 10  2  0
  9 11  1  0
 11 12  1  0
 12 13  2  0
 12 14  1  0
 14 15  1  0
 15 16  1  0
 16 17  1  0
 17 18  1  6
 17 19  1  0
 19 20  1  0
 20 21  1  0
 21 22  2  0
 21 23  1  0
 23 24  1  0
 24 25  1  0
 25 26  1  0
 26 27  1  0
 26 28  1  0
 26 29  1  0
 11 30  2  0
 30 31  1  0
 31  3  1  0
 31  7  2  0
 29 23  1  0
M  END
>  <energy>  (212) 
94.68

>  <full_id>  (212) 
MOL00008393-001715-03_1

>  <mol_id>  (212) 
MOL00008393-001715-03

>  <act_mol>  (212) 
0

>  <act_conf>  (212) 
0

$$$$
MOL00009098-000872-03
     RDKit          3D

 18 20  0  0  0  0  0  0  0  0999 V2000
    3.5194    2.3880    0.7359 O   0  0  0  0  0  0  0  0  0  0  0  0
    3.3323    1.2535    0.3152 C   0  0  0  0  0  0  0  0  0  0  0  0
    4.3616    0.4052   -0.0575 N   0  0  0  0  0  0  0  0  0  0  0  0
    4.2220   -0.8831   -0.5389 C   0  0  0  0  0  0  0  0  0  0  0  0
    5.5552   -1.7911   -0.9494 S   0  0  0  0  0  0  0  0  0  0  0  0
    2.9493   -1.3817   -0.6646 N   0  0  0  0  0  0  0  0  0  0  0  0
    1.8801   -0.6094   -0.3187 C   0  0  0  0  0  0  0  0  0  0  0  0
    0.5741   -0.9573   -0.3856 N   0  0  0  0  0  0  0  0  0  0  0  0
   -0.0902    0.1124    0.0529 C   0  0  0  0  0  0  0  0  0  0  0  0
   -1.5545    0.2068    0.1615 C   0  0  0  0  0  0  0  0  0  0  0  0
   -2.1924    1.3664    0.6327 C   0  0  0  0  0  0  0  0  0  0  0  0
   -3.5880    1.4310    0.7266 C   0  0  0  0  0  0  0  0  0  0  0  0
   -4.3686    0.3399    0.3519 C   0  0  0  0  0  0  0  0  0  0  0  0
   -3.7571   -0.8188   -0.1177 C   0  0  0  0  0  0  0  0  0  0  0  0
   -2.3674   -0.8809   -0.2103 C   0  0  0  0  0  0  0  0  0  0  0  0
   -1.8490   -2.0603   -0.6831 O   0  0  0  0  0  0  0  0  0  0  0  0
    0.7978    1.1200    0.3906 N   0  0  0  0  0  0  0  0  0  0  0  0
    2.0548    0.6540    0.1515 C   0  0  0  0  0  0  0  0  0  0  0  0
  1  2  2  0
  2  3  1  0
  3  4  1  0
  4  5  2  0
  4  6  1  0
  6  7  1  0
  7  8  1  0
  8  9  2  0
  9 10  1  0
 10 11  2  0
 11 12  1  0
 12 13  2  0
 13 14  1  0
 14 15  2  0
 15 16  1  0
  9 17  1  0
 17 18  1  0
 18  2  1  0
 18  7  2  0
 15 10  1  0
M  END
>  <energy>  (213) 
-116.29

>  <full_id>  (213) 
MOL00009098-000872-03_1

>  <mol_id>  (213) 
MOL00009098-000872-03

>  <act_mol>  (213) 
0

>  <act_conf>  (213) 
0

$$$$
MOL00008468-002074-03
     RDKit          3D

 31 32  0  0  0  0  0  0  0  0999 V2000
   10.0581   -3.1451    3.0648 C   0  0  0  0  0  0  0  0  0  0  0  0
    9.1634   -2.0489    2.8667 O   0  0  0  0  0  0  0  0  0  0  0  0
    8.4748   -2.0988    1.6935 C   0  0  0  0  0  0  0  0  0  0  0  0
    8.5962   -2.9914    0.8693 O   0  0  0  0  0  0  0  0  0  0  0  0
    7.6655   -1.0002    1.6355 N   0  0  0  0  0  0  0  0  0  0  0  0
    6.7729   -0.6242    0.6191 C   0  0  0  0  0  0  0  0  0  0  0  0
    6.5659   -1.3644   -0.5455 C   0  0  0  0  0  0  0  0  0  0  0  0
    5.6569   -0.9236   -1.5152 C   0  0  0  0  0  0  0  0  0  0  0  0
    4.9397    0.2609   -1.3293 C   0  0  0  0  0  0  0  0  0  0  0  0
    4.0096    0.7132   -2.3700 C   0  0  0  0  0  0  0  0  0  0  0  0
    2.6738    0.7978   -2.2481 C   0  0  0  0  0  0  0  0  0  0  0  0
    1.8313    0.3581   -0.8147 Cl  0  0  0  0  0  0  0  0  0  0  0  0
    1.9166    1.2811   -3.4454 C   0  0  0  0  0  0  0  0  0  0  0  0
    0.6614    1.4920   -3.6894 N   0  0  0  0  0  0  0  0  0  0  0  0
   -0.2616    1.2575   -2.7255 N   0  0  0  0  0  0  0  0  0  0  0  0
   -1.6050    1.4700   -2.9654 C   0  0  0  0  0  0  0  0  0  0  0  0
   -2.1428    1.8747   -3.9888 O   0  0  0  0  0  0  0  0  0  0  0  0
   -2.4786    1.1316   -1.7446 C   0  0  0  0  0  0  0  0  0  0  0  0
   -1.9346    0.7281   -0.7261 O   0  0  0  0  0  0  0  0  0  0  0  0
   -3.8175    1.3437   -1.9962 N   0  0  0  0  0  0  0  0  0  0  0  0
   -4.9036    1.1422   -1.1295 C   0  0  0  0  0  0  0  0  0  0  0  0
   -4.7757    0.6743    0.1783 C   0  0  0  0  0  0  0  0  0  0  0  0
   -5.9081    0.4966    0.9812 C   0  0  0  0  0  0  0  0  0  0  0  0
   -7.1854    0.7882    0.4893 C   0  0  0  0  0  0  0  0  0  0  0  0
   -8.4076    0.5737    1.3486 C   0  0  0  0  0  0  0  0  0  0  0  0
   -8.9498   -0.8526    1.2136 C   0  0  0  0  0  0  0  0  0  0  0  0
  -10.1373   -1.0475    2.0447 N   0  0  0  0  0  0  0  0  0  0  0  0
   -7.3124    1.2527   -0.8237 C   0  0  0  0  0  0  0  0  0  0  0  0
   -6.1803    1.4297   -1.6246 C   0  0  0  0  0  0  0  0  0  0  0  0
    5.1503    1.0082   -0.1675 C   0  0  0  0  0  0  0  0  0  0  0  0
    6.0581    0.5656    0.8004 C   0  0  0  0  0  0  0  0  0  0  0  0
  1  2  1  0
  2  3  1  0
  3  4  2  0
  3  5  1  0
  5  6  1  0
  6  7  2  0
  7  8  1  0
  8  9  2  0
  9 10  1  0
 10 11  2  0
 11 12  1  0
 11 13  1  0
 13 14  2  0
 14 15  1  0
 15 16  1  0
 16 17  2  0
 16 18  1  0
 18 19  2  0
 18 20  1  0
 20 21  1  0
 21 22  2  0
 22 23  1  0
 23 24  2  0
 24 25  1  0
 25 26  1  0
 26 27  1  0
 24 28  1  0
 28 29  2  0
  9 30  1  0
 30 31  2  0
 31  6  1  0
 29 21  1  0
M  END
>  <energy>  (214) 
81.70

>  <full_id>  (214) 
MOL00008468-002074-03_1

>  <mol_id>  (214) 
MOL00008468-002074-03

>  <act_mol>  (214) 
0

>  <act_conf>  (214) 
0

$$$$
MOL00009011-001318-03
     RDKit          3D

 28 31  0  0  0  0  0  0  0  0999 V2000
    3.6182   -2.1212   -2.4435 C   0  0  0  0  0  0  0  0  0  0  0  0
    3.8935   -1.1777   -1.4159 O   0  0  0  0  0  0  0  0  0  0  0  0
    2.8162   -0.6363   -0.7524 C   0  0  0  0  0  0  0  0  0  0  0  0
    1.4742   -0.9113   -1.0460 C   0  0  0  0  0  0  0  0  0  0  0  0
    0.4274   -0.3140   -0.3221 C   0  0  0  0  0  0  0  0  0  0  0  0
   -0.8950   -0.6368   -0.6717 N   0  0  0  0  0  0  0  0  0  0  0  0
   -2.0823   -0.2023   -0.1316 C   0  0  0  0  0  0  0  0  0  0  0  0
   -3.3173   -0.5535   -0.5143 C   0  0  0  0  0  0  0  0  0  0  0  0
   -3.5549   -1.5196   -1.6452 C   0  0  0  0  0  0  0  0  0  0  0  0
   -2.7136   -2.0796   -2.3246 O   0  0  0  0  0  0  0  0  0  0  0  0
   -4.9326   -1.6375   -1.7507 N   0  0  0  0  0  0  0  0  0  0  0  0
   -5.6237   -0.8797   -0.8423 C   0  0  0  0  0  0  0  0  0  0  0  0
   -6.9535   -0.8180   -0.7377 C   0  0  0  0  0  0  0  0  0  0  0  0
   -7.7544    0.1669    0.4406 S   0  0  0  0  0  0  0  0  0  0  0  0
   -6.4431    0.9107    1.2849 C   0  0  0  0  0  0  0  0  0  0  0  0
   -6.5772    1.7506    2.2769 N   0  0  0  0  0  0  0  0  0  0  0  0
   -5.2777    2.0746    2.6275 C   0  0  0  0  0  0  0  0  0  0  0  0
   -4.3232    1.4749    1.8985 C   0  0  0  0  0  0  0  0  0  0  0  0
   -5.0178    0.6543    0.9488 C   0  0  0  0  0  0  0  0  0  0  0  0
   -4.6390   -0.1710   -0.0321 C   0  0  0  0  0  0  0  0  0  0  0  0
    0.7646    0.5698    0.7066 C   0  0  0  0  0  0  0  0  0  0  0  0
    2.1018    0.8548    1.0102 C   0  0  0  0  0  0  0  0  0  0  0  0
    3.1324    0.2580    0.2876 C   0  0  0  0  0  0  0  0  0  0  0  0
    4.4953    0.5001    0.5413 N   0  0  0  0  0  0  0  0  0  0  0  0
    5.0770    1.3295    1.4757 C   0  0  0  0  0  0  0  0  0  0  0  0
    4.4970    2.0256    2.3039 O   0  0  0  0  0  0  0  0  0  0  0  0
    6.6112    1.2818    1.4233 C   0  0  0  0  0  0  0  0  0  0  0  0
    7.0988    0.8013    0.1122 N   0  0  0  0  0  0  0  0  0  0  0  0
  1  2  1  0
  2  3  1  0
  3  4  2  0
  4  5  1  0
  5  6  1  0
  6  7  1  0
  7  8  2  0
  8  9  1  0
  9 10  2  0
  9 11  1  0
 11 12  1  0
 12 13  2  0
 13 14  1  0
 14 15  1  0
 15 16  2  0
 16 17  1  0
 17 18  2  0
 18 19  1  0
 19 20  2  0
  5 21  2  0
 21 22  1  0
 22 23  2  0
 23 24  1  0
 24 25  1  0
 25 26  2  0
 25 27  1  0
 27 28  1  0
 23  3  1  0
 20  8  1  0
 20 12  1  0
 19 15  1  0
M  END
>  <energy>  (215) 
103.79

>  <full_id>  (215) 
MOL00009011-001318-03_1

>  <mol_id>  (215) 
MOL00009011-001318-03

>  <act_mol>  (215) 
0

>  <act_conf>  (215) 
0

$$$$
MOL00009037-001006-04
     RDKit          3D

 26 28  0  0  0  0  0  0  0  0999 V2000
   -4.6682    2.9523    0.2801 C   0  0  0  0  0  0  0  0  0  0  0  0
   -4.8885    1.4524    0.4109 C   0  0  0  0  0  0  0  0  0  0  0  0
   -3.8096    0.6565   -0.2857 C   0  0  0  0  0  0  0  0  0  0  0  0
   -4.0606    0.1887   -1.5830 C   0  0  0  0  0  0  0  0  0  0  0  0
   -3.0987   -0.5424   -2.2809 C   0  0  0  0  0  0  0  0  0  0  0  0
   -1.8522   -0.8270   -1.7059 C   0  0  0  0  0  0  0  0  0  0  0  0
   -0.8523   -1.6180   -2.5056 C   0  0  0  0  0  0  0  0  0  0  0  0
   -1.5790   -0.3593   -0.4049 C   0  0  0  0  0  0  0  0  0  0  0  0
   -0.2950   -0.6116    0.2647 C   0  0  0  0  0  0  0  0  0  0  0  0
   -0.0277   -0.1551    1.5010 C   0  0  0  0  0  0  0  0  0  0  0  0
    1.2487   -0.3444    2.2799 C   0  0  0  0  0  0  0  0  0  0  0  0
    2.2365   -1.1612    1.5431 N   0  0  0  0  0  0  0  0  0  0  0  0
    2.3229   -2.5606    1.9546 C   0  0  0  0  0  0  0  0  0  0  0  0
    3.3037   -0.5466    0.8905 C   0  0  0  0  0  0  0  0  0  0  0  0
    3.1962    0.7593    0.3735 C   0  0  0  0  0  0  0  0  0  0  0  0
    4.2499    1.3883   -0.3042 C   0  0  0  0  0  0  0  0  0  0  0  0
    5.4518    0.7059   -0.4871 C   0  0  0  0  0  0  0  0  0  0  0  0
    6.5615    1.3517   -1.1965 N   0  0  0  0  0  4  0  0  0  0  0  0
    6.3863    2.5053   -1.6148 O   0  0  0  0  0  0  0  0  0  0  0  0
    7.6100    0.7056   -1.3375 O   0  0  0  0  0  1  0  0  0  0  0  0
    5.5970   -0.5936   -0.0017 C   0  0  0  0  0  0  0  0  0  0  0  0
    4.5290   -1.2037    0.6721 C   0  0  0  0  0  0  0  0  0  0  0  0
   -1.0658    0.6305    2.2233 C   0  0  0  0  0  0  0  0  0  0  0  0
   -0.8680    1.0711    3.3523 O   0  0  0  0  0  0  0  0  0  0  0  0
   -2.2524    0.8442    1.5826 N   0  0  0  0  0  0  0  0  0  0  0  0
   -2.5568    0.3810    0.2922 C   0  0  0  0  0  0  0  0  0  0  0  0
  1  2  1  0
  2  3  1  0
  3  4  2  0
  4  5  1  0
  5  6  2  0
  6  7  1  0
  6  8  1  0
  8  9  1  0
  9 10  2  0
 10 11  1  0
 11 12  1  0
 12 13  1  0
 12 14  1  0
 14 15  2  0
 15 16  1  0
 16 17  2  0
 17 18  1  0
 18 19  2  0
 18 20  1  0
 17 21  1  0
 21 22  2  0
 10 23  1  0
 23 24  2  0
 23 25  1  0
 25 26  1  0
 26  3  1  0
 26  8  2  0
 22 14  1  0
M  CHG  2  18   1  20  -1
M  END
>  <energy>  (216) 
52.61

>  <full_id>  (216) 
MOL00009037-001006-04_1

>  <mol_id>  (216) 
MOL00009037-001006-04

>  <act_mol>  (216) 
0

>  <act_conf>  (216) 
0

$$$$
MOL00008966-000037-02
     RDKit          3D

 29 33  0  0  0  0  0  0  0  0999 V2000
    3.7447    3.3849    1.0270 O   0  0  0  0  0  0  0  0  0  0  0  0
    3.3172    2.3568    0.5147 C   0  0  0  0  0  0  0  0  0  0  0  0
    4.1310    1.3882   -0.0337 N   0  0  0  0  0  0  0  0  0  0  0  0
    5.5555    1.6114   -0.1410 C   0  0  0  0  0  0  0  0  0  0  0  0
    6.2795    0.3244   -0.4108 C   0  0  0  0  0  0  0  0  0  0  0  0
    6.4340   -0.6333    0.6029 C   0  0  0  0  0  0  0  0  0  0  0  0
    7.0983   -1.8355    0.3467 C   0  0  0  0  0  0  0  0  0  0  0  0
    7.6115   -2.0954   -0.9241 C   0  0  0  0  0  0  0  0  0  0  0  0
    7.4584   -1.1531   -1.9397 C   0  0  0  0  0  0  0  0  0  0  0  0
    6.7956    0.0430   -1.6775 C   0  0  0  0  0  0  0  0  0  0  0  0
    6.6511    0.9297   -2.6726 F   0  0  0  0  0  0  0  0  0  0  0  0
    1.8495    2.1125    0.4219 C   0  0  0  0  0  0  0  0  0  0  0  0
    0.9974    3.2222    0.4027 C   0  0  0  0  0  0  0  0  0  0  0  0
   -0.3914    3.0615    0.3135 C   0  0  0  0  0  0  0  0  0  0  0  0
   -0.9317    1.7630    0.2525 C   0  0  0  0  0  0  0  0  0  0  0  0
   -2.2575    1.2480    0.1619 C   0  0  0  0  0  0  0  0  0  0  0  0
   -2.1688   -0.1239    0.1491 C   0  0  0  0  0  0  0  0  0  0  0  0
   -3.2890   -1.1918    0.0664 C   0  0  0  0  0  0  0  0  0  0  0  0
   -2.9585   -2.4923    0.0945 N   0  0  0  0  0  0  0  0  0  0  0  0
   -4.1400   -3.1325    0.0335 N   0  0  0  0  0  0  0  0  0  0  0  0
   -5.1997   -2.2841   -0.0361 C   0  0  0  0  0  0  0  0  0  0  0  0
   -4.6842   -1.0060   -0.0334 C   0  0  0  0  0  0  0  0  0  0  0  0
   -5.5482    0.2020   -0.0930 C   0  0  0  0  0  0  0  0  0  0  0  0
   -6.9882   -0.1644   -0.5130 C   0  0  0  0  0  0  0  0  0  0  0  0
   -7.5040   -1.4374    0.1872 C   0  0  0  0  0  0  0  0  0  0  0  0
   -6.6289   -2.6674   -0.1232 C   0  0  0  0  0  0  0  0  0  0  0  0
   -0.8443   -0.4600    0.2354 N   0  0  0  0  0  0  0  0  0  0  0  0
   -0.0637    0.6706    0.2904 C   0  0  0  0  0  0  0  0  0  0  0  0
    1.3286    0.8083    0.3787 C   0  0  0  0  0  0  0  0  0  0  0  0
  1  2  2  0
  2  3  1  0
  3  4  1  0
  4  5  1  0
  5  6  2  0
  6  7  1  0
  7  8  2  0
  8  9  1  0
  9 10  2  0
 10 11  1  0
  2 12  1  0
 12 13  2  0
 13 14  1  0
 14 15  2  0
 15 16  1  0
 16 17  2  0
 17 18  1  0
 18 19  2  0
 19 20  1  0
 20 21  1  0
 21 22  2  0
 22 23  1  0
 23 24  1  0
 24 25  1  0
 25 26  1  0
 17 27  1  0
 27 28  1  0
 28 29  2  0
 10  5  1  0
 29 12  1  0
 28 15  1  0
 22 18  1  0
 26 21  1  0
M  END
>  <energy>  (217) 
10.34

>  <full_id>  (217) 
MOL00008966-000037-02_1

>  <mol_id>  (217) 
MOL00008966-000037-02

>  <act_mol>  (217) 
0

>  <act_conf>  (217) 
0

$$$$
MOL00009051-000012-03
     RDKit          3D

 24 26  0  0  0  0  0  0  0  0999 V2000
   -3.9406   -2.0548   -1.3288 C   0  0  0  0  0  0  0  0  0  0  0  0
   -3.1116   -1.3662   -0.3526 N   0  0  0  0  0  0  0  0  0  0  0  0
   -2.2858   -0.2983   -0.7660 C   0  0  0  0  0  0  0  0  0  0  0  0
   -2.4385    0.3289   -2.0135 C   0  0  0  0  0  0  0  0  0  0  0  0
   -1.6303    1.4042   -2.3952 C   0  0  0  0  0  0  0  0  0  0  0  0
   -0.6699    1.8983   -1.5230 C   0  0  0  0  0  0  0  0  0  0  0  0
   -0.5280    1.3295   -0.2602 C   0  0  0  0  0  0  0  0  0  0  0  0
   -1.3325    0.2475    0.1369 C   0  0  0  0  0  0  0  0  0  0  0  0
   -1.1844   -0.2664    1.5033 C   0  0  0  0  0  0  0  0  0  0  0  0
   -2.2744   -0.4801    2.3124 N   0  0  0  0  0  0  0  0  0  0  0  0
   -1.9671   -0.8961    3.5522 N   0  0  0  0  0  0  0  0  0  0  0  0
   -0.6327   -0.8929    3.5552 C   0  0  0  0  0  0  0  0  0  0  0  0
   -0.0828   -0.5580    2.2977 C   0  0  0  0  0  0  0  0  0  0  0  0
    1.3260   -0.4641    1.9687 C   0  0  0  0  0  0  0  0  0  0  0  0
    2.0587    0.2762    2.6208 O   0  0  0  0  0  0  0  0  0  0  0  0
    1.8158   -1.2419    0.9204 N   0  0  0  0  0  0  0  0  0  0  0  0
    1.0394   -2.2237    0.1729 C   0  0  0  0  0  0  0  0  0  0  0  0
    3.1527   -0.9307    0.4135 C   0  0  0  0  0  0  0  0  0  0  0  0
    3.0628   -0.0599   -0.7879 C   0  0  0  0  0  0  0  0  0  0  0  0
    2.8827   -0.3879   -2.0502 N   0  0  0  0  0  0  0  0  0  0  0  0
    2.8620    0.8390   -2.6610 C   0  0  0  0  0  0  0  0  0  0  0  0
    2.6527    0.9988   -4.1113 C   0  0  0  0  0  0  0  0  0  0  0  0
    3.0303    1.8847   -1.8420 N   0  0  0  0  0  0  0  0  0  0  0  0
    3.1635    1.2866   -0.5861 O   0  0  0  0  0  0  0  0  0  0  0  0
  1  2  1  0
  2  3  1  0
  3  4  2  0
  4  5  1  0
  5  6  2  0
  6  7  1  0
  7  8  2  0
  8  9  1  0
  9 10  1  0
 10 11  1  0
 11 12  2  0
 12 13  1  0
 13 14  1  0
 14 15  2  0
 14 16  1  0
 16 17  1  0
 16 18  1  0
 18 19  1  0
 19 20  2  0
 20 21  1  0
 21 22  1  0
 21 23  2  0
 23 24  1  0
  8  3  1  0
 13  9  2  0
 24 19  1  0
M  END
>  <energy>  (218) 
33.72

>  <full_id>  (218) 
MOL00009051-000012-03_1

>  <mol_id>  (218) 
MOL00009051-000012-03

>  <act_mol>  (218) 
0

>  <act_conf>  (218) 
0

$$$$
MOL00008874-000524-04
     RDKit          3D

 33 36  0  0  0  0  0  0  0  0999 V2000
   -9.0287   -1.2174   -3.7268 C   0  0  0  0  0  0  0  0  0  0  0  0
   -7.6938   -0.7833   -3.9572 O   0  0  0  0  0  0  0  0  0  0  0  0
   -6.9725   -0.3941   -2.8629 C   0  0  0  0  0  0  0  0  0  0  0  0
   -7.4167   -0.4055   -1.5401 C   0  0  0  0  0  0  0  0  0  0  0  0
   -6.5691    0.0214   -0.5115 C   0  0  0  0  0  0  0  0  0  0  0  0
   -5.2684    0.4519   -0.7975 C   0  0  0  0  0  0  0  0  0  0  0  0
   -4.3996    0.8965    0.3297 C   0  0  0  0  0  0  0  0  0  0  0  0
   -4.9318    1.4572    1.2796 O   0  0  0  0  0  0  0  0  0  0  0  0
   -3.0613    0.5703    0.1911 N   0  0  0  0  0  0  0  0  0  0  0  0
   -1.9856    0.9240    1.0462 C   0  0  0  0  0  0  0  0  0  0  0  0
   -2.1562    1.8627    2.0678 C   0  0  0  0  0  0  0  0  0  0  0  0
   -1.0834    2.2611    2.8581 C   0  0  0  0  0  0  0  0  0  0  0  0
    0.1882    1.7483    2.6228 C   0  0  0  0  0  0  0  0  0  0  0  0
    0.4069    0.8107    1.6095 C   0  0  0  0  0  0  0  0  0  0  0  0
    1.7086    0.3276    1.3137 N   0  0  0  0  0  0  0  0  0  0  0  0
    2.8963    0.5882    1.9640 C   0  0  0  0  0  0  0  0  0  0  0  0
    3.0264    1.2780    2.9758 O   0  0  0  0  0  0  0  0  0  0  0  0
    4.1191   -0.0526    1.3595 C   0  0  0  0  0  0  0  0  0  0  0  0
    5.3218    0.1436    1.9479 C   0  0  0  0  0  0  0  0  0  0  0  0
    5.5244    0.9035    3.0893 O   0  0  0  0  0  0  0  0  0  0  0  0
    6.5495   -0.4596    1.3964 C   0  0  0  0  0  0  0  0  0  0  0  0
    7.8101   -0.2773    1.9806 C   0  0  0  0  0  0  0  0  0  0  0  0
    8.9463   -0.8691    1.4218 C   0  0  0  0  0  0  0  0  0  0  0  0
    8.8349   -1.6499    0.2726 C   0  0  0  0  0  0  0  0  0  0  0  0
    7.5878   -1.8410   -0.3207 C   0  0  0  0  0  0  0  0  0  0  0  0
    6.4573   -1.2464    0.2435 C   0  0  0  0  0  0  0  0  0  0  0  0
    5.2094   -1.4391   -0.3521 N   0  0  0  0  0  0  0  0  0  0  0  0
    4.0508   -0.8978    0.1289 C   0  0  0  0  0  0  0  0  0  0  0  0
    2.9837   -1.1102   -0.4472 O   0  0  0  0  0  0  0  0  0  0  0  0
   -0.6992    0.3520    0.8366 C   0  0  0  0  0  0  0  0  0  0  0  0
   -0.4959   -0.7297   -0.2024 C   0  0  0  0  0  0  0  0  0  0  0  0
   -4.8277    0.4818   -2.1249 C   0  0  0  0  0  0  0  0  0  0  0  0
   -5.6789    0.0541   -3.1478 C   0  0  0  0  0  0  0  0  0  0  0  0
  1  2  1  0
  2  3  1  0
  3  4  2  0
  4  5  1  0
  5  6  2  0
  6  7  1  0
  7  8  2  0
  7  9  1  0
  9 10  1  0
 10 11  2  0
 11 12  1  0
 12 13  2  0
 13 14  1  0
 14 15  1  0
 15 16  1  0
 16 17  2  0
 16 18  1  0
 18 19  2  0
 19 20  1  0
 19 21  1  0
 21 22  2  0
 22 23  1  0
 23 24  2  0
 24 25  1  0
 25 26  2  0
 26 27  1  0
 27 28  1  0
 28 29  2  0
 14 30  2  0
 30 31  1  0
  6 32  1  0
 32 33  2  0
 33  3  1  0
 30 10  1  0
 28 18  1  0
 26 21  1  0
M  END
>  <energy>  (219) 
31.33

>  <full_id>  (219) 
MOL00008874-000524-04_1

>  <mol_id>  (219) 
MOL00008874-000524-04

>  <act_mol>  (219) 
0

>  <act_conf>  (219) 
0

$$$$
MOL00009290-000001-03
     RDKit          3D

 21 23  0  0  0  0  0  0  0  0999 V2000
   -5.4861   -1.2865   -0.1344 C   0  0  0  0  0  0  0  0  0  0  0  0
   -5.0217    0.0482    0.3062 C   0  0  0  0  0  0  0  0  0  0  0  0
   -5.8993    1.0464    0.6387 N   0  0  0  0  0  0  0  0  0  0  0  0
   -5.3061    2.1872    1.0165 N   0  0  0  0  0  0  0  0  0  0  0  0
   -4.0021    1.9098    0.9202 C   0  0  0  0  0  0  0  0  0  0  0  0
   -3.7638    0.5885    0.4812 C   0  0  0  0  0  0  0  0  0  0  0  0
   -2.5850   -0.0982    0.2525 N   0  0  0  0  0  0  0  0  0  0  0  0
   -1.3193    0.4527    0.3945 C   0  0  0  0  0  0  0  0  0  0  0  0
   -1.1092    1.6151    0.7175 O   0  0  0  0  0  0  0  0  0  0  0  0
   -0.3419   -0.4939    0.1229 N   0  0  0  0  0  0  0  0  0  0  0  0
    1.0570   -0.3130    0.1173 C   0  0  0  0  0  0  0  0  0  0  0  0
    1.6909    0.9118    0.3257 C   0  0  0  0  0  0  0  0  0  0  0  0
    3.0896    1.0044    0.2992 C   0  0  0  0  0  0  0  0  0  0  0  0
    3.8817   -0.1258    0.0618 C   0  0  0  0  0  0  0  0  0  0  0  0
    5.3353   -0.0322    0.0337 C   0  0  0  0  0  0  0  0  0  0  0  0
    6.1509   -1.1189   -0.1969 N   0  0  0  0  0  0  0  0  0  0  0  0
    7.4002   -0.6793   -0.1533 N   0  0  0  0  0  0  0  0  0  0  0  0
    7.2862    0.6289    0.0972 N   0  0  0  0  0  0  0  0  0  0  0  0
    6.0378    1.0995    0.2245 N   0  0  0  0  0  0  0  0  0  0  0  0
    3.2431   -1.3535   -0.1501 C   0  0  0  0  0  0  0  0  0  0  0  0
    1.8458   -1.4448   -0.1234 C   0  0  0  0  0  0  0  0  0  0  0  0
  1  2  1  0
  2  3  1  0
  3  4  1  0
  4  5  2  0
  5  6  1  0
  6  7  1  0
  7  8  1  0
  8  9  2  0
  8 10  1  0
 10 11  1  0
 11 12  2  0
 12 13  1  0
 13 14  2  0
 14 15  1  0
 15 16  1  0
 16 17  2  0
 17 18  1  0
 18 19  1  0
 14 20  1  0
 20 21  2  0
  6  2  2  0
 21 11  1  0
 19 15  2  0
M  END
>  <energy>  (220) 
-12.87

>  <full_id>  (220) 
MOL00009290-000001-03_1

>  <mol_id>  (220) 
MOL00009290-000001-03

>  <act_mol>  (220) 
0

>  <act_conf>  (220) 
0

$$$$
MOL00009149-002961-02
     RDKit          3D

 31 34  0  0  0  0  0  0  0  0999 V2000
    2.1061   -1.9159   -1.7862 C   0  0  0  0  0  0  0  0  0  0  0  0
    2.0318   -0.9307   -0.7024 N   0  0  0  0  0  0  0  0  0  0  0  0
    0.7980   -0.6074   -0.1277 C   0  0  0  0  0  0  0  0  0  0  0  0
    0.4959    0.5210    0.2729 O   0  0  0  0  0  0  0  0  0  0  0  0
   -0.2193   -1.6658   -0.0047 C   0  0  0  0  0  0  0  0  0  0  0  0
   -0.0542   -3.1280    0.1930 C   0  0  0  0  0  0  0  0  0  0  0  0
    0.9939   -3.7328    0.3170 O   0  0  0  0  0  0  0  0  0  0  0  0
   -1.3252   -3.6609    0.2392 N   0  0  0  0  0  0  0  0  0  0  0  0
   -2.2157   -2.6249    0.2574 N   0  0  0  0  0  0  0  0  0  0  0  0
   -3.5722   -2.7437    0.4647 C   0  0  0  0  0  0  0  0  0  0  0  0
   -4.1634   -3.8058    0.6363 O   0  0  0  0  0  0  0  0  0  0  0  0
   -4.3099   -1.4419    0.4902 C   0  0  0  0  0  0  0  0  0  0  0  0
   -3.6247   -0.2924    0.3197 C   0  0  0  0  0  0  0  0  0  0  0  0
   -4.3197    1.0071    0.3578 C   0  0  0  0  0  0  0  0  0  0  0  0
   -4.1813    1.9102   -0.7063 C   0  0  0  0  0  0  0  0  0  0  0  0
   -4.8266    3.1485   -0.6756 C   0  0  0  0  0  0  0  0  0  0  0  0
   -5.6130    3.4982    0.4202 C   0  0  0  0  0  0  0  0  0  0  0  0
   -5.7543    2.6122    1.4865 C   0  0  0  0  0  0  0  0  0  0  0  0
   -5.1099    1.3731    1.4571 C   0  0  0  0  0  0  0  0  0  0  0  0
   -2.2623   -0.2826    0.0903 N   0  0  0  0  0  0  0  0  0  0  0  0
   -1.5413   -1.4449    0.1008 C   0  0  0  0  0  0  0  0  0  0  0  0
    3.2368   -0.1961   -0.3808 C   0  0  0  0  0  0  0  0  0  0  0  0
    3.2997    0.6802    0.7156 C   0  0  0  0  0  0  0  0  0  0  0  0
    4.4739    1.3787    1.0398 C   0  0  0  0  0  0  0  0  0  0  0  0
    5.6314    1.2082    0.2777 C   0  0  0  0  0  0  0  0  0  0  0  0
    6.8874    1.9282    0.5863 C   0  0  0  0  0  0  0  0  0  0  0  0
    7.9387    1.8716   -0.0205 O   0  0  0  0  0  0  0  0  0  0  0  0
    6.7697    2.7123    1.6754 O   0  0  0  0  0  0  0  0  0  0  0  0
    5.5901    0.3264   -0.7961 C   0  0  0  0  0  0  0  0  0  0  0  0
    6.6706    0.1077   -1.5592 F   0  0  0  0  0  0  0  0  0  0  0  0
    4.4192   -0.3702   -1.1177 C   0  0  0  0  0  0  0  0  0  0  0  0
  1  2  1  0
  2  3  1  0
  3  4  2  0
  3  5  1  0
  5  6  1  0
  6  7  2  0
  6  8  1  0
  8  9  1  0
  9 10  1  0
 10 11  2  0
 10 12  1  0
 12 13  2  0
 13 14  1  0
 14 15  2  0
 15 16  1  0
 16 17  2  0
 17 18  1  0
 18 19  2  0
 13 20  1  0
 20 21  1  0
  2 22  1  0
 22 23  2  0
 23 24  1  0
 24 25  2  0
 25 26  1  0
 26 27  2  0
 26 28  1  0
 25 29  1  0
 29 30  1  0
 29 31  2  0
 21  5  2  0
 31 22  1  0
 21  9  1  0
 19 14  1  0
M  END
>  <energy>  (221) 
18.12

>  <full_id>  (221) 
MOL00009149-002961-02_1

>  <mol_id>  (221) 
MOL00009149-002961-02

>  <act_mol>  (221) 
0

>  <act_conf>  (221) 
0

$$$$
MOL00009060-001481-04
     RDKit          3D

 33 36  0  0  0  0  0  0  0  0999 V2000
   -1.6890    3.1724   -2.1107 N   0  0  0  0  0  0  0  0  0  0  0  0
   -2.8191    2.4025   -2.5083 C   0  0  0  0  0  0  0  0  0  0  0  0
   -3.7066    2.9675   -3.4391 C   0  0  0  0  0  0  0  0  0  0  0  0
   -4.9091    2.3361   -3.7593 C   0  0  0  0  0  0  0  0  0  0  0  0
   -5.2602    1.1492   -3.1263 C   0  0  0  0  0  0  0  0  0  0  0  0
   -4.4108    0.5959   -2.1675 C   0  0  0  0  0  0  0  0  0  0  0  0
   -3.1919    1.2155   -1.8364 C   0  0  0  0  0  0  0  0  0  0  0  0
   -2.3066    0.5478   -0.7891 C   0  0  0  0  0  0  0  0  0  0  0  0
   -2.8646   -0.3991   -0.1088 N   0  0  0  0  0  0  0  0  0  0  0  0
   -2.0820   -1.1767    0.8455 C   0  0  0  0  0  0  0  0  0  0  0  0
   -2.7950   -2.4596    1.2255 C   0  0  0  0  0  0  0  0  0  0  0  0
   -2.9015   -2.8466    2.5695 C   0  0  0  0  0  0  0  0  0  0  0  0
   -3.5328   -4.0445    2.9143 C   0  0  0  0  0  0  0  0  0  0  0  0
   -4.0546   -4.8650    1.9163 C   0  0  0  0  0  0  0  0  0  0  0  0
   -4.8306   -6.3410    2.3424 Cl  0  0  0  0  0  0  0  0  0  0  0  0
   -3.9494   -4.5005    0.5764 C   0  0  0  0  0  0  0  0  0  0  0  0
   -3.3178   -3.3034    0.2330 C   0  0  0  0  0  0  0  0  0  0  0  0
   -0.9943    1.0089   -0.6963 N   0  0  0  0  0  0  0  0  0  0  0  0
   -0.3183    1.0745    0.5020 N   0  0  0  0  0  0  0  0  0  0  0  0
    1.0786    1.1649    0.5779 C   0  0  0  0  0  0  0  0  0  0  0  0
    1.8952    0.5279   -0.3547 C   0  0  0  0  0  0  0  0  0  0  0  0
    3.2819    0.6218   -0.2330 C   0  0  0  0  0  0  0  0  0  0  0  0
    3.8180    1.3439    0.8303 C   0  0  0  0  0  0  0  0  0  0  0  0
    5.2695    1.5131    1.0397 C   0  0  0  0  0  0  0  0  0  0  0  0
    5.6831    2.5786    1.4873 O   0  0  0  0  0  0  0  0  0  0  0  0
    6.2329    0.4380    0.7261 C   0  0  0  0  0  0  0  0  0  0  0  0
    5.9361   -0.9181    0.8770 C   0  0  0  0  0  0  0  0  0  0  0  0
    6.9109   -1.8664    0.5710 C   0  0  0  0  0  0  0  0  0  0  0  0
    8.1492   -1.4234    0.1330 C   0  0  0  0  0  0  0  0  0  0  0  0
    8.4709   -0.1195   -0.0088 N   0  0  0  0  0  0  0  0  0  0  0  0
    7.5100    0.7846    0.3043 C   0  0  0  0  0  0  0  0  0  0  0  0
    2.9366    1.9655    1.7030 C   0  0  0  0  0  0  0  0  0  0  0  0
    1.5856    1.8774    1.6052 N   0  0  0  0  0  0  0  0  0  0  0  0
  1  2  1  0
  2  3  2  0
  3  4  1  0
  4  5  2  0
  5  6  1  0
  6  7  2  0
  7  8  1  0
  8  9  2  0
  9 10  1  0
 10 11  1  0
 11 12  2  0
 12 13  1  0
 13 14  2  0
 14 15  1  0
 14 16  1  0
 16 17  2  0
  8 18  1  0
 18 19  1  0
 19 20  1  0
 20 21  2  0
 21 22  1  0
 22 23  2  0
 23 24  1  0
 24 25  2  0
 24 26  1  0
 26 27  2  0
 27 28  1  0
 28 29  2  0
 29 30  1  0
 30 31  2  0
 23 32  1  0
 32 33  2  0
  7  2  1  0
 17 11  1  0
 33 20  1  0
 31 26  1  0
M  END
>  <energy>  (222) 
127.98

>  <full_id>  (222) 
MOL00009060-001481-04_1

>  <mol_id>  (222) 
MOL00009060-001481-04

>  <act_mol>  (222) 
0

>  <act_conf>  (222) 
0

$$$$
MOL00009332-001126-03
     RDKit          3D

 21 22  0  0  0  0  0  0  0  0999 V2000
    7.0374   -0.5359    1.0173 C   0  0  0  0  0  0  0  0  0  0  0  0
    6.3564    0.2789   -0.0390 C   0  0  0  0  0  0  0  0  0  0  0  0
    6.9383    0.9640   -0.8678 O   0  0  0  0  0  0  0  0  0  0  0  0
    5.0081    0.1464    0.0663 O   0  0  0  0  0  0  0  0  0  0  0  0
    4.2825    0.8886   -0.9162 C   0  0  0  0  0  0  0  0  0  0  0  0
    2.8126    0.6477   -0.6809 C   0  0  0  0  0  0  0  0  0  0  0  0
    2.1067    1.4197    0.2525 C   0  0  0  0  0  0  0  0  0  0  0  0
    0.7479    1.1871    0.4878 C   0  0  0  0  0  0  0  0  0  0  0  0
    0.0818    0.1656   -0.2006 C   0  0  0  0  0  0  0  0  0  0  0  0
   -1.3621   -0.1192    0.0226 C   0  0  0  0  0  0  0  0  0  0  0  0
   -2.0857   -0.6159   -0.9307 N   0  0  0  0  0  0  0  0  0  0  0  0
   -3.4470   -0.8779   -0.7309 N   0  0  0  0  0  0  0  0  0  0  0  0
   -3.9665   -0.6751    0.4435 C   0  0  0  0  0  0  0  0  0  0  0  0
   -5.4460   -0.9251    0.7155 C   0  0  1  0  0  0  0  0  0  0  0  0
   -6.2128    0.3915    0.6793 C   0  0  0  0  0  0  0  0  0  0  0  0
   -6.0121   -1.8380   -0.3011 N   0  0  0  0  0  0  0  0  0  0  0  0
   -3.1431   -0.1483    1.5911 C   0  0  0  0  0  0  0  0  0  0  0  0
   -3.6106   -0.0222    2.7116 O   0  0  0  0  0  0  0  0  0  0  0  0
   -1.8556    0.1494    1.2698 N   0  0  0  0  0  0  0  0  0  0  0  0
    0.7820   -0.6045   -1.1366 C   0  0  0  0  0  0  0  0  0  0  0  0
    2.1399   -0.3708   -1.3682 C   0  0  0  0  0  0  0  0  0  0  0  0
  1  2  1  0
  2  3  2  0
  2  4  1  0
  4  5  1  0
  5  6  1  0
  6  7  2  0
  7  8  1  0
  8  9  2  0
  9 10  1  0
 10 11  2  0
 11 12  1  0
 12 13  2  0
 13 14  1  0
 14 15  1  6
 14 16  1  0
 13 17  1  0
 17 18  2  0
 17 19  1  0
  9 20  1  0
 20 21  2  0
 21  6  1  0
 19 10  1  0
M  END
>  <energy>  (223) 
71.56

>  <full_id>  (223) 
MOL00009332-001126-03_1

>  <mol_id>  (223) 
MOL00009332-001126-03

>  <act_mol>  (223) 
0

>  <act_conf>  (223) 
0

$$$$
MOL00009324-000799-04
     RDKit          3D

 26 28  0  0  0  0  0  0  0  0999 V2000
    4.5750   -2.1198    1.8392 C   0  0  0  0  0  0  0  0  0  0  0  0
    5.0912   -1.1568    0.8020 C   0  0  0  0  0  0  0  0  0  0  0  0
    6.4733   -1.1322    0.5442 C   0  0  0  0  0  0  0  0  0  0  0  0
    6.9880   -0.2811   -0.4224 C   0  0  0  0  0  0  0  0  0  0  0  0
    8.3055   -0.2715   -0.6627 F   0  0  0  0  0  0  0  0  0  0  0  0
    6.1526    0.5482   -1.1502 C   0  0  0  0  0  0  0  0  0  0  0  0
    4.7780    0.5362   -0.8969 C   0  0  0  0  0  0  0  0  0  0  0  0
    4.2227   -0.2823    0.1020 C   0  0  0  0  0  0  0  0  0  0  0  0
    2.8399   -0.3579    0.3385 N   0  0  0  0  0  0  0  0  0  0  0  0
    1.9474    0.6881   -0.1686 C   0  0  0  0  0  0  0  0  0  0  0  0
    0.5046    0.3635    0.1407 C   0  0  0  0  0  0  0  0  0  0  0  0
    0.0183   -0.8139    0.5833 C   0  0  0  0  0  0  0  0  0  0  0  0
   -1.4391   -1.0833    0.8580 C   0  0  1  0  0  0  0  0  0  0  0  0
   -1.6982   -1.1967    2.3382 C   0  0  0  0  0  0  0  0  0  0  0  0
   -2.8560   -0.7831    2.8635 C   0  0  0  0  0  0  0  0  0  0  0  0
   -3.0880   -0.9390    4.1820 F   0  0  0  0  0  0  0  0  0  0  0  0
   -3.9199   -0.2449    2.0572 C   0  0  0  0  0  0  0  0  0  0  0  0
   -3.7442    0.1235    0.7718 C   0  0  0  0  0  0  0  0  0  0  0  0
   -4.8020    0.6297    0.0146 N   0  0  0  0  0  0  0  0  0  0  0  0
   -4.7139    1.3458   -1.2603 C   0  0  0  0  0  0  0  0  0  0  0  0
   -6.0779    1.2953   -1.9582 C   0  0  0  0  0  0  0  0  0  0  0  0
   -6.4713   -0.0622   -2.1579 O   0  0  0  0  0  0  0  0  0  0  0  0
   -2.3457   -0.0288    0.1528 C   0  0  1  0  0  0  0  0  0  0  0  0
   -1.7472    1.2963    0.1582 N   0  0  0  0  0  0  0  0  0  0  0  0
   -0.4219    1.5186   -0.0571 C   0  0  0  0  0  0  0  0  0  0  0  0
   -0.0157    2.6287   -0.3814 O   0  0  0  0  0  0  0  0  0  0  0  0
  1  2  1  0
  2  3  2  0
  3  4  1  0
  4  5  1  0
  4  6  2  0
  6  7  1  0
  7  8  2  0
  8  9  1  0
  9 10  1  0
 10 11  1  0
 11 12  2  0
 13 12  1  1
 13 14  1  0
 14 15  2  0
 15 16  1  0
 15 17  1  0
 17 18  2  0
 18 19  1  0
 19 20  1  0
 20 21  1  0
 21 22  1  0
 18 23  1  0
 23 24  1  1
 24 25  1  0
 25 26  2  0
  8  2  1  0
 25 11  1  0
 23 13  1  0
M  END
>  <energy>  (224) 
39.51

>  <full_id>  (224) 
MOL00009324-000799-04_1

>  <mol_id>  (224) 
MOL00009324-000799-04

>  <act_mol>  (224) 
0

>  <act_conf>  (224) 
0

$$$$
MOL00008885-001274-02
     RDKit          3D

 37 41  0  0  0  0  0  0  0  0999 V2000
    8.3909   -2.0610   -3.8582 C   0  0  0  0  0  0  0  0  0  0  0  0
    7.3704   -1.0494   -3.6515 N   0  0  0  0  0  0  0  0  0  0  0  0
    6.2569   -1.3418   -2.8581 C   0  0  0  0  0  0  0  0  0  0  0  0
    5.4748   -0.2755   -2.3869 C   0  0  0  0  0  0  0  0  0  0  0  0
    4.3092   -0.4957   -1.6456 C   0  0  0  0  0  0  0  0  0  0  0  0
    3.8907   -1.8000   -1.3898 C   0  0  0  0  0  0  0  0  0  0  0  0
    2.6617   -2.0689   -0.6196 C   0  0  0  0  0  0  0  0  0  0  0  0
    1.9290   -1.1141   -0.1380 N   0  0  0  0  0  0  0  0  0  0  0  0
    0.8148   -1.5427    0.5488 N   0  0  0  0  0  0  0  0  0  0  0  0
   -0.1675   -0.5683    0.9158 C   0  0  1  0  0  0  0  0  0  0  0  0
   -1.1297   -1.2782    1.6811 N   0  0  0  0  0  0  0  0  0  0  0  0
   -2.1333   -0.3298    2.1098 C   0  0  2  0  0  0  0  0  0  0  0  0
   -3.0690    0.2146    1.1450 N   0  0  0  0  0  0  0  0  0  0  0  0
   -4.0621   -0.5539    0.5398 C   0  0  0  0  0  0  0  0  0  0  0  0
   -5.1029    0.1129   -0.1211 C   0  0  0  0  0  0  0  0  0  0  0  0
   -6.1020   -0.5848   -0.8132 C   0  0  0  0  0  0  0  0  0  0  0  0
   -6.0793   -1.9805   -0.8899 C   0  0  0  0  0  0  0  0  0  0  0  0
   -7.1134   -2.7209   -1.5993 C   0  0  0  0  0  0  0  0  0  0  0  0
   -7.3783   -4.0506   -1.8568 C   0  0  0  0  0  0  0  0  0  0  0  0
   -8.5320   -4.1785   -2.5894 N   0  0  0  0  0  0  0  0  0  0  0  0
   -8.9228   -2.9353   -2.7527 C   0  0  0  0  0  0  0  0  0  0  0  0
   -8.1209   -1.9950   -2.1846 O   0  0  0  0  0  0  0  0  0  0  0  0
   -5.0208   -2.6502   -0.2660 C   0  0  0  0  0  0  0  0  0  0  0  0
   -4.0227   -1.9445    0.4241 C   0  0  0  0  0  0  0  0  0  0  0  0
   -1.4554    0.6569    2.9238 N   0  0  0  0  0  0  0  0  0  0  0  0
   -0.4551    1.3541    2.1458 C   0  0  1  0  0  0  0  0  0  0  0  0
    0.1050    2.4999    2.8304 N   0  0  0  0  0  0  0  0  0  0  0  0
    1.0152    3.3707    2.2191 C   0  0  0  0  0  0  0  0  0  0  0  0
    1.1047    3.5148    0.8244 C   0  0  0  0  0  0  0  0  0  0  0  0
    1.9785    4.4330    0.2340 C   0  0  0  0  0  0  0  0  0  0  0  0
    2.7659    5.2540    1.0289 C   0  0  0  0  0  0  0  0  0  0  0  0
    2.6657    5.1666    2.4138 C   0  0  0  0  0  0  0  0  0  0  0  0
    1.7848    4.2497    3.0176 C   0  0  0  0  0  0  0  0  0  0  0  0
    1.7043    4.2240    4.5219 C   0  0  0  0  0  0  0  0  0  0  0  0
    0.4732    0.3083    1.8380 N   0  0  0  0  0  0  0  0  0  0  0  0
    4.6296   -2.8764   -1.8802 C   0  0  0  0  0  0  0  0  0  0  0  0
    5.7957   -2.6426   -2.6198 C   0  0  0  0  0  0  0  0  0  0  0  0
  1  2  1  0
  2  3  1  0
  3  4  2  0
  4  5  1  0
  5  6  2  0
  6  7  1  0
  7  8  2  0
  8  9  1  0
 10  9  1  1
 10 11  1  0
 11 12  1  0
 12 13  1  6
 13 14  1  0
 14 15  2  0
 15 16  1  0
 16 17  2  0
 17 18  1  0
 18 19  2  0
 19 20  1  0
 20 21  2  0
 21 22  1  0
 17 23  1  0
 23 24  2  0
 12 25  1  0
 25 26  1  0
 26 27  1  1
 27 28  1  0
 28 29  2  0
 29 30  1  0
 30 31  2  0
 31 32  1  0
 32 33  2  0
 33 34  1  0
 26 35  1  0
  6 36  1  0
 36 37  2  0
 37  3  1  0
 35 10  1  0
 24 14  1  0
 33 28  1  0
 22 18  1  0
M  END
>  <energy>  (225) 
-403.52

>  <full_id>  (225) 
MOL00008885-001274-02_1

>  <mol_id>  (225) 
MOL00008885-001274-02

>  <act_mol>  (225) 
0

>  <act_conf>  (225) 
0

$$$$
MOL00009333-001028-03
     RDKit          3D

 29 31  0  0  0  0  0  0  0  0999 V2000
    6.9806    3.1924    1.2532 C   0  0  0  0  0  0  0  0  0  0  0  0
    7.0516    2.5307   -0.1134 C   0  0  0  0  0  0  0  0  0  0  0  0
    6.4819    1.1378   -0.0796 C   0  0  0  0  0  0  0  0  0  0  0  0
    7.3215    0.0296   -0.0937 C   0  0  0  0  0  0  0  0  0  0  0  0
    6.7510   -1.2353   -0.0530 C   0  0  0  0  0  0  0  0  0  0  0  0
    5.3660   -1.3616    0.0109 C   0  0  0  0  0  0  0  0  0  0  0  0
    4.5944   -0.2099    0.0380 C   0  0  0  0  0  0  0  0  0  0  0  0
    3.2024   -0.1946    0.1295 N   0  0  0  0  0  0  0  0  0  0  0  0
    2.3499   -1.2610    0.2926 C   0  0  0  0  0  0  0  0  0  0  0  0
    2.6671   -2.4399    0.3957 O   0  0  0  0  0  0  0  0  0  0  0  0
    0.9055   -0.9044    0.4014 C   0  0  0  0  0  0  0  0  0  0  0  0
    0.0810   -1.7042    1.1996 C   0  0  0  0  0  0  0  0  0  0  0  0
   -1.2740   -1.3909    1.3492 C   0  0  0  0  0  0  0  0  0  0  0  0
   -1.8254   -0.2831    0.6975 C   0  0  0  0  0  0  0  0  0  0  0  0
   -3.1866   -0.0206    0.9241 N   0  0  0  0  0  0  0  0  0  0  0  0
   -3.9750    0.9699    0.3679 C   0  0  0  0  0  0  0  0  0  0  0  0
   -3.6211    1.7918   -0.4719 O   0  0  0  0  0  0  0  0  0  0  0  0
   -5.4061    0.9993    0.9352 C   0  0  2  0  0  0  0  0  0  0  0  0
   -5.6864   -0.2395    1.7270 N   0  0  0  0  0  0  0  0  0  0  0  0
   -6.8240   -0.9084    1.0918 N   0  0  0  0  0  0  0  0  0  0  0  0
   -7.5172    0.1399    0.2987 C   0  0  2  0  0  0  0  0  0  0  0  0
   -8.1346   -0.6109   -0.8674 N   0  0  0  0  0  4  0  0  0  0  0  0
   -9.2993   -0.3160   -1.1682 O   0  0  0  0  0  0  0  0  0  0  0  0
   -7.4324   -1.4532   -1.4532 O   0  0  0  0  0  1  0  0  0  0  0  0
   -6.4327    1.0596   -0.1867 C   0  0  1  0  0  0  0  0  0  0  0  0
   -7.1237    2.8701   -0.4083 Br  0  0  0  0  0  0  0  0  0  0  0  0
   -1.0060    0.4981   -0.1211 C   0  0  0  0  0  0  0  0  0  0  0  0
    0.3516    0.1884   -0.2755 C   0  0  0  0  0  0  0  0  0  0  0  0
    5.1319    1.0282   -0.0152 N   0  0  0  0  0  0  0  0  0  0  0  0
  1  2  1  0
  2  3  1  0
  3  4  2  0
  4  5  1  0
  5  6  2  0
  6  7  1  0
  7  8  1  0
  8  9  1  0
  9 10  2  0
  9 11  1  0
 11 12  2  0
 12 13  1  0
 13 14  2  0
 14 15  1  0
 15 16  1  0
 16 17  2  0
 18 16  1  6
 18 19  1  0
 19 20  1  0
 20 21  1  0
 21 22  1  6
 22 23  2  0
 22 24  1  0
 21 25  1  0
 25 26  1  1
 14 27  1  0
 27 28  2  0
  7 29  2  0
 29  3  1  0
 28 11  1  0
 25 18  1  0
M  CHG  2  22   1  24  -1
M  END
>  <energy>  (226) 
117.39

>  <full_id>  (226) 
MOL00009333-001028-03_1

>  <mol_id>  (226) 
MOL00009333-001028-03

>  <act_mol>  (226) 
0

>  <act_conf>  (226) 
0

$$$$
MOL00009342-000340-03
     RDKit          3D

 31 32  0  0  0  0  0  0  0  0999 V2000
    5.4845   -6.4622   -4.3242 C   0  0  0  0  0  0  0  0  0  0  0  0
    4.6777   -6.1414   -3.0807 C   0  0  0  0  0  0  0  0  0  0  0  0
    5.3014   -5.0369   -2.4143 O   0  0  0  0  0  0  0  0  0  0  0  0
    4.7136   -4.6958   -1.2314 C   0  0  0  0  0  0  0  0  0  0  0  0
    3.7353   -5.2484   -0.7485 O   0  0  0  0  0  0  0  0  0  0  0  0
    5.4781   -3.5516   -0.6039 C   0  0  0  0  0  0  0  0  0  0  0  0
    4.7939   -2.9842    0.6397 C   0  0  0  0  0  0  0  0  0  0  0  0
    3.5777   -2.1198    0.2938 C   0  0  0  0  0  0  0  0  0  0  0  0
    2.8904   -1.5983    1.5602 C   0  0  0  0  0  0  0  0  0  0  0  0
    1.6751   -0.7221    1.2456 C   0  0  0  0  0  0  0  0  0  0  0  0
    2.1126    0.5429    0.6608 N   0  0  0  0  0  0  0  0  0  0  0  0
    1.0795    1.4427    0.3200 C   0  0  0  0  0  0  0  0  0  0  0  0
   -0.2008    1.0150    0.3488 N   0  0  0  0  0  0  0  0  0  0  0  0
   -1.1794    1.8572   -0.0242 C   0  0  0  0  0  0  0  0  0  0  0  0
   -2.4603    1.3119    0.0266 N   0  0  0  0  0  0  0  0  0  0  0  0
   -3.7491    1.7971   -0.2593 C   0  0  0  0  0  0  0  0  0  0  0  0
   -3.9864    3.1398   -0.6002 C   0  0  0  0  0  0  0  0  0  0  0  0
   -5.2718    3.6131   -0.8903 C   0  0  0  0  0  0  0  0  0  0  0  0
   -6.3530    2.7392   -0.8422 C   0  0  0  0  0  0  0  0  0  0  0  0
   -7.9813    3.3099   -1.2266 S   0  0  0  0  0  6  0  0  0  0  0  0
   -8.7309    3.2453    0.2739 N   0  0  0  0  0  0  0  0  0  0  0  0
   -7.9286    4.7086   -1.5797 O   0  0  0  0  0  0  0  0  0  0  0  0
   -8.6329    2.3173   -2.0465 O   0  0  0  0  0  0  0  0  0  0  0  0
   -6.1602    1.3964   -0.5196 C   0  0  0  0  0  0  0  0  0  0  0  0
   -4.8694    0.9296   -0.2265 C   0  0  0  0  0  0  0  0  0  0  0  0
   -4.7197   -0.4574    0.1107 C   0  0  0  0  0  0  0  0  0  0  0  0
   -4.5686   -1.5719    0.3961 N   0  0  0  0  0  0  0  0  0  0  0  0
   -0.9526    3.1136   -0.4269 N   0  0  0  0  0  0  0  0  0  0  0  0
    0.3329    3.5200   -0.4649 C   0  0  0  0  0  0  0  0  0  0  0  0
    1.3951    2.7256   -0.1064 C   0  0  0  0  0  0  0  0  0  0  0  0
    3.0023    3.3327   -0.1752 Cl  0  0  0  0  0  0  0  0  0  0  0  0
  1  2  1  0
  2  3  1  0
  3  4  1  0
  4  5  2  0
  4  6  1  0
  6  7  1  0
  7  8  1  0
  8  9  1  0
  9 10  1  0
 10 11  1  0
 11 12  1  0
 12 13  2  0
 13 14  1  0
 14 15  1  0
 15 16  1  0
 16 17  2  0
 17 18  1  0
 18 19  2  0
 19 20  1  0
 20 21  1  0
 20 22  2  0
 20 23  2  0
 19 24  1  0
 24 25  2  0
 25 26  1  0
 26 27  3  0
 14 28  2  0
 28 29  1  0
 29 30  2  0
 30 31  1  0
 30 12  1  0
 25 16  1  0
M  END
>  <energy>  (227) 
-115.56

>  <full_id>  (227) 
MOL00009342-000340-03_1

>  <mol_id>  (227) 
MOL00009342-000340-03

>  <act_mol>  (227) 
0

>  <act_conf>  (227) 
0

$$$$
MOL00009032-001090-04
     RDKit          3D

 33 36  0  0  0  0  0  0  0  0999 V2000
    6.8598    3.1842   -1.1243 C   0  0  0  0  0  0  0  0  0  0  0  0
    7.0751    2.0134   -0.1754 C   0  0  0  0  0  0  0  0  0  0  0  0
    5.7583    1.4035    0.3076 C   0  0  1  0  0  0  0  0  0  0  0  0
    4.9303    0.7489   -0.7917 C   0  0  0  0  0  0  0  0  0  0  0  0
    4.2455   -0.4359   -0.1143 C   0  0  2  0  0  0  0  0  0  0  0  0
    2.7194   -0.2844   -0.1207 C   0  0  0  0  0  0  0  0  0  0  0  0
    2.0029   -0.8492   -0.9434 O   0  0  0  0  0  0  0  0  0  0  0  0
    2.2326    0.5885    0.8346 N   0  0  0  0  0  0  0  0  0  0  0  0
    0.8107    0.7366    1.0647 C   0  0  1  0  0  0  0  0  0  0  0  0
    0.2489   -0.4305    1.8950 C   0  0  0  0  0  0  0  0  0  0  0  0
   -1.0189   -0.0342    2.6647 C   0  0  2  0  0  0  0  0  0  0  0  0
   -2.2091   -0.2221    1.8593 N   0  0  0  0  0  0  0  0  0  0  0  0
   -3.4737   -0.3499    2.3919 C   0  0  0  0  0  0  0  0  0  0  0  0
   -3.7030   -0.3950    3.5972 O   0  0  0  0  0  0  0  0  0  0  0  0
   -4.5820   -0.4566    1.3422 C   0  0  0  0  0  0  0  0  0  0  0  0
   -4.0553   -0.1579    0.0487 O   0  0  0  0  0  0  0  0  0  0  0  0
   -4.8650   -0.3694   -1.0333 C   0  0  0  0  0  0  0  0  0  0  0  0
   -6.2316   -0.6374   -0.9649 C   0  0  0  0  0  0  0  0  0  0  0  0
   -6.9665   -0.8418   -2.1384 C   0  0  0  0  0  0  0  0  0  0  0  0
   -8.6585   -1.1752   -1.9787 Cl  0  0  0  0  0  0  0  0  0  0  0  0
   -6.3524   -0.7812   -3.3977 C   0  0  0  0  0  0  0  0  0  0  0  0
   -7.1521   -1.0005   -4.4883 O   0  0  0  0  0  0  0  0  0  0  0  0
   -6.5438   -0.9722   -5.7726 C   0  0  0  0  0  0  0  0  0  0  0  0
   -4.9839   -0.5032   -3.4595 C   0  0  0  0  0  0  0  0  0  0  0  0
   -4.2356   -0.2879   -2.2875 C   0  0  0  0  0  0  0  0  0  0  0  0
   -2.7591   -0.0081   -2.3909 C   0  0  0  0  0  0  0  0  0  0  0  0
   -0.9588    1.4519    3.0595 C   0  0  1  0  0  0  0  0  0  0  0  0
    0.4944    1.9485    3.3623 C   0  0  0  0  0  0  0  0  0  0  0  0
    0.6193    2.0658    1.8074 C   0  0  2  0  0  0  0  0  0  0  0  0
   -0.8887    2.4469    1.8577 C   0  0  0  0  0  0  0  0  0  0  0  0
    4.7390   -0.4060    1.2890 N   0  0  0  0  0  0  0  0  0  0  0  0
    4.9524   -1.7626    1.7995 C   0  0  0  0  0  0  0  0  0  0  0  0
    6.0001    0.2939    1.2361 N   0  0  0  0  0  0  0  0  0  0  0  0
  1  2  1  0
  3  2  1  6
  3  4  1  0
  4  5  1  0
  5  6  1  1
  6  7  2  0
  6  8  1  0
  9  8  1  1
  9 10  1  0
 10 11  1  0
 11 12  1  6
 12 13  1  0
 13 14  2  0
 13 15  1  0
 15 16  1  0
 16 17  1  0
 17 18  2  0
 18 19  1  0
 19 20  1  0
 19 21  2  0
 21 22  1  0
 22 23  1  0
 21 24  1  0
 24 25  2  0
 25 26  1  0
 11 27  1  0
 27 28  1  1
 29 28  1  1
 29 30  1  0
  5 31  1  0
 31 32  1  0
 31 33  1  0
 33  3  1  0
 29  9  1  0
 25 17  1  0
 27 30  1  0
M  END
>  <energy>  (228) 
107.00

>  <full_id>  (228) 
MOL00009032-001090-04_1

>  <mol_id>  (228) 
MOL00009032-001090-04

>  <act_mol>  (228) 
0

>  <act_conf>  (228) 
0

$$$$
MOL00009266-001390-03
     RDKit          3D

 34 35  0  0  0  0  0  0  0  0999 V2000
    7.3104    2.1054    0.7803 C   0  0  0  0  0  0  0  0  0  0  0  0
    6.1480    3.0848    0.7033 C   0  0  0  0  0  0  0  0  0  0  0  0
    4.9872    2.5913   -0.1668 C   0  0  0  0  0  0  0  0  0  0  0  0
    4.2843    1.3544    0.4159 C   0  0  0  0  0  0  0  0  0  0  0  0
    3.0169    0.8782   -0.3483 C   0  0  0  0  0  0  0  0  0  0  0  0
    1.9172    1.9577   -0.3478 C   0  0  0  0  0  0  0  0  0  0  0  0
    3.3699    0.5612   -1.8169 C   0  0  0  0  0  0  0  0  0  0  0  0
    2.4861   -0.3929    0.1955 N   0  0  0  0  0  0  0  0  0  0  0  0
    2.0737   -0.3948    1.6295 C   0  0  1  0  0  0  0  0  0  0  0  0
    0.9520   -1.4282    1.8623 C   0  0  0  0  0  0  0  0  0  0  0  0
   -0.2158   -1.2281    1.0151 N   0  0  0  0  0  0  0  0  0  0  0  0
   -1.0780   -0.1823    1.2264 C   0  0  0  0  0  0  0  0  0  0  0  0
   -0.9890    0.5588    2.2025 O   0  0  0  0  0  0  0  0  0  0  0  0
   -2.2024    0.0327    0.2725 C   0  0  0  0  0  0  0  0  0  0  0  0
   -3.3903    0.5299    0.8421 C   0  0  0  0  0  0  0  0  0  0  0  0
   -4.5218    0.8149    0.0579 C   0  0  0  0  0  0  0  0  0  0  0  0
   -5.7720    1.3128    0.7183 C   0  0  0  0  0  0  0  0  0  0  0  0
   -6.7276    1.6987    0.0506 O   0  0  0  0  0  0  0  0  0  0  0  0
   -5.8592    1.3442    2.2048 C   0  0  0  0  0  0  0  0  0  0  0  0
   -5.9996    0.0608    2.9919 C   0  0  0  0  0  0  0  0  0  0  0  0
   -7.1658    0.9941    2.8836 C   0  0  0  0  0  0  0  0  0  0  0  0
   -4.4675    0.6265   -1.3426 C   0  0  0  0  0  0  0  0  0  0  0  0
   -5.6054    0.9275   -2.1310 N   0  0  0  0  0  0  0  0  0  0  0  0
   -5.7812    0.7711   -3.4898 C   0  0  0  0  0  0  0  0  0  0  0  0
   -7.1331    1.2442   -3.9615 C   0  0  0  0  0  0  0  0  0  0  0  0
   -4.9794    0.2824   -4.2786 O   0  0  0  0  0  0  0  0  0  0  0  0
   -3.2788    0.1513   -1.9073 C   0  0  0  0  0  0  0  0  0  0  0  0
   -2.1562   -0.1462   -1.1109 C   0  0  0  0  0  0  0  0  0  0  0  0
   -0.9717   -0.6610   -1.8066 C   0  0  0  0  0  0  0  0  0  0  0  0
   -0.4496   -1.7383   -1.5976 O   0  0  0  0  0  0  0  0  0  0  0  0
   -0.5266    0.2113   -2.7222 O   0  0  0  0  0  0  0  0  0  0  0  0
    3.2384   -0.8202    2.5219 C   0  0  0  0  0  0  0  0  0  0  0  0
    4.2155   -1.4692    2.1762 O   0  0  0  0  0  0  0  0  0  0  0  0
    3.1067   -0.4209    3.8016 O   0  0  0  0  0  0  0  0  0  0  0  0
  1  2  1  0
  2  3  1  0
  3  4  1  0
  4  5  1  0
  5  6  1  0
  5  7  1  0
  5  8  1  0
  8  9  1  0
  9 10  1  6
 10 11  1  0
 11 12  1  0
 12 13  2  0
 12 14  1  0
 14 15  2  0
 15 16  1  0
 16 17  1  0
 17 18  2  0
 19 17  1  0
 19 20  1  0
 20 21  1  0
 16 22  2  0
 22 23  1  0
 23 24  1  0
 24 25  1  0
 24 26  2  0
 22 27  1  0
 27 28  2  0
 28 29  1  0
 29 30  2  0
 29 31  1  0
  9 32  1  0
 32 33  2  0
 32 34  1  0
 28 14  1  0
 21 19  1  0
M  END
>  <energy>  (229) 
43.65

>  <full_id>  (229) 
MOL00009266-001390-03_1

>  <mol_id>  (229) 
MOL00009266-001390-03

>  <act_mol>  (229) 
0

>  <act_conf>  (229) 
0

$$$$
MOL00009224-001860-03
     RDKit          3D

 36 39  0  0  0  0  0  0  0  0999 V2000
    5.5762   -0.2433    1.7740 N   0  0  0  0  0  0  0  0  0  0  0  0
    5.5161   -1.2734    0.8166 C   0  0  0  0  0  0  0  0  0  0  0  0
    6.6988   -1.9513    0.4881 C   0  0  0  0  0  0  0  0  0  0  0  0
    6.7254   -2.8980   -0.5383 C   0  0  0  0  0  0  0  0  0  0  0  0
    5.5759   -3.1535   -1.2760 C   0  0  0  0  0  0  0  0  0  0  0  0
    4.4035   -2.4518   -0.9952 C   0  0  0  0  0  0  0  0  0  0  0  0
    4.3591   -1.4930    0.0346 C   0  0  0  0  0  0  0  0  0  0  0  0
    3.1043   -0.7665    0.2750 C   0  0  0  0  0  0  0  0  0  0  0  0
    2.1142   -1.3053    1.1077 C   0  0  0  0  0  0  0  0  0  0  0  0
    0.9258   -0.6105    1.3449 C   0  0  0  0  0  0  0  0  0  0  0  0
    0.7005    0.6358    0.7479 C   0  0  0  0  0  0  0  0  0  0  0  0
   -0.6020    1.3727    0.9781 C   0  0  0  0  0  0  0  0  0  0  0  0
   -1.5966    1.2013   -0.1940 C   0  0  2  0  0  0  0  0  0  0  0  0
   -2.8727    2.0512   -0.0008 C   0  0  0  0  0  0  0  0  0  0  0  0
   -2.6423    3.5315   -0.2053 C   0  0  0  0  0  0  0  0  0  0  0  0
   -2.5912    4.4016    0.8909 C   0  0  0  0  0  0  0  0  0  0  0  0
   -2.3684    5.7677    0.7029 C   0  0  0  0  0  0  0  0  0  0  0  0
   -2.1878    6.2869   -0.5847 C   0  0  0  0  0  0  0  0  0  0  0  0
   -1.9823    7.7617   -0.7996 C   0  0  0  0  0  0  0  0  0  0  0  0
   -3.1978    8.3751   -1.2047 O   0  0  0  0  0  0  0  0  0  0  0  0
   -2.2525    5.4188   -1.6821 C   0  0  0  0  0  0  0  0  0  0  0  0
   -2.4748    4.0532   -1.4944 C   0  0  0  0  0  0  0  0  0  0  0  0
   -1.9148   -0.2117   -0.4491 N   0  0  0  0  0  0  0  0  0  0  0  0
   -2.6012   -1.0018    0.4499 C   0  0  0  0  0  0  0  0  0  0  0  0
   -3.0986   -0.5804    1.4871 O   0  0  0  0  0  0  0  0  0  0  0  0
   -2.6739   -2.4551    0.1276 C   0  0  0  0  0  0  0  0  0  0  0  0
   -2.8318   -3.3638    1.1828 C   0  0  0  0  0  0  0  0  0  0  0  0
   -2.9022   -4.7376    0.9289 C   0  0  0  0  0  0  0  0  0  0  0  0
   -2.8233   -5.2127   -0.3853 C   0  0  0  0  0  0  0  0  0  0  0  0
   -2.8942   -6.6587   -0.7059 C   0  0  0  0  0  0  0  0  0  0  0  0
   -2.8285   -7.1428   -1.8201 O   0  0  0  0  0  0  0  0  0  0  0  0
   -3.0419   -7.4287    0.3857 O   0  0  0  0  0  0  0  0  0  0  0  0
   -2.6793   -4.3042   -1.4422 C   0  0  0  0  0  0  0  0  0  0  0  0
   -2.6100   -2.9297   -1.1888 C   0  0  0  0  0  0  0  0  0  0  0  0
    1.6852    1.1776   -0.0865 C   0  0  0  0  0  0  0  0  0  0  0  0
    2.8754    0.4832   -0.3174 C   0  0  0  0  0  0  0  0  0  0  0  0
  1  2  1  0
  2  3  2  0
  3  4  1  0
  4  5  2  0
  5  6  1  0
  6  7  2  0
  7  8  1  0
  8  9  2  0
  9 10  1  0
 10 11  2  0
 11 12  1  0
 13 12  1  1
 13 14  1  0
 14 15  1  0
 15 16  2  0
 16 17  1  0
 17 18  2  0
 18 19  1  0
 19 20  1  0
 18 21  1  0
 21 22  2  0
 13 23  1  0
 23 24  1  0
 24 25  2  0
 24 26  1  0
 26 27  2  0
 27 28  1  0
 28 29  2  0
 29 30  1  0
 30 31  2  0
 30 32  1  0
 29 33  1  0
 33 34  2  0
 11 35  1  0
 35 36  2  0
  7  2  1  0
 36  8  1  0
 22 15  1  0
 34 26  1  0
M  END
>  <energy>  (230) 
91.83

>  <full_id>  (230) 
MOL00009224-001860-03_1

>  <mol_id>  (230) 
MOL00009224-001860-03

>  <act_mol>  (230) 
0

>  <act_conf>  (230) 
0

$$$$
MOL00010185-001316-02
     RDKit          3D

 25 27  0  0  0  0  0  0  0  0999 V2000
    5.5788   -1.9107    2.0356 N   0  0  0  0  0  0  0  0  0  0  0  0
    5.4663   -1.2002    0.8727 C   0  0  0  0  0  0  0  0  0  0  0  0
    6.4589   -0.9314    0.2074 O   0  0  0  0  0  0  0  0  0  0  0  0
    4.1108   -0.7326    0.4746 C   0  0  0  0  0  0  0  0  0  0  0  0
    2.9428   -1.3108    0.9729 C   0  0  0  0  0  0  0  0  0  0  0  0
    1.6977   -0.8200    0.5703 C   0  0  0  0  0  0  0  0  0  0  0  0
    1.5915    0.2271   -0.3602 C   0  0  0  0  0  0  0  0  0  0  0  0
    0.3192    0.7607   -0.6999 N   0  0  0  0  0  0  0  0  0  0  0  0
   -0.8356    0.0293   -0.5395 N   0  0  0  0  0  0  0  0  0  0  0  0
   -1.9783    0.5966   -0.0723 C   0  0  0  0  0  0  0  0  0  0  0  0
   -2.0414    1.7962    0.5985 C   0  0  0  0  0  0  0  0  0  0  0  0
   -1.0833    2.6440    0.9503 O   0  0  0  0  0  0  0  0  0  0  0  0
   -3.3453    2.0458    0.9012 N   0  0  0  0  0  0  0  0  0  0  0  0
   -4.1427    1.0120    0.4593 C   0  0  0  0  0  0  0  0  0  0  0  0
   -5.5291    0.8464    0.5704 C   0  0  0  0  0  0  0  0  0  0  0  0
   -6.0918   -0.3171    0.0448 C   0  0  0  0  0  0  0  0  0  0  0  0
   -5.2938   -1.2796   -0.5706 C   0  0  0  0  0  0  0  0  0  0  0  0
   -3.9031   -1.1056   -0.6929 C   0  0  0  0  0  0  0  0  0  0  0  0
   -3.1572   -2.1071   -1.2780 N   0  0  0  0  0  0  0  0  0  0  0  0
   -2.5893   -1.7318   -2.3111 O   0  0  0  0  0  0  0  0  0  0  0  0
   -3.3064    0.0691   -0.1609 C   0  0  0  0  0  0  0  0  0  0  0  0
    2.7683    0.8211   -0.8635 C   0  0  0  0  0  0  0  0  0  0  0  0
    2.7610    2.0122   -1.7935 C   0  0  0  0  0  0  0  0  0  0  0  0
    1.6280    1.9984   -2.6596 O   0  0  0  0  0  0  0  0  0  0  0  0
    4.0178    0.3262   -0.4386 C   0  0  0  0  0  0  0  0  0  0  0  0
  1  2  1  0
  2  3  2  0
  2  4  1  0
  4  5  2  0
  5  6  1  0
  6  7  2  0
  7  8  1  0
  8  9  1  0
  9 10  1  0
 10 11  2  0
 11 12  1  0
 11 13  1  0
 13 14  1  0
 14 15  2  0
 15 16  1  0
 16 17  2  0
 17 18  1  0
 18 19  1  0
 19 20  2  0
 18 21  2  0
  7 22  1  0
 22 23  1  0
 23 24  1  0
 22 25  2  0
 25  4  1  0
 21 10  1  0
 21 14  1  0
M  END
>  <energy>  (231) 
43.49

>  <full_id>  (231) 
MOL00010185-001316-02_1

>  <mol_id>  (231) 
MOL00010185-001316-02

>  <act_mol>  (231) 
0

>  <act_conf>  (231) 
0

$$$$
MOL00010349-002251-03
     RDKit          3D

 25 27  0  0  0  0  0  0  0  0999 V2000
    7.8036   -0.0006   -1.2370 C   0  0  0  0  0  0  0  0  0  0  0  0
    6.3516    0.0681   -0.8648 C   0  0  0  0  0  0  0  0  0  0  0  0
    5.5307    1.0745   -1.3820 C   0  0  0  0  0  0  0  0  0  0  0  0
    4.1778    1.1360   -1.0320 C   0  0  0  0  0  0  0  0  0  0  0  0
    3.6187    0.1946   -0.1582 C   0  0  0  0  0  0  0  0  0  0  0  0
    2.2451    0.3313    0.1367 N   0  0  0  0  0  0  0  0  0  0  0  0
    1.4793   -0.4395    0.9887 C   0  0  0  0  0  0  0  0  0  0  0  0
    1.8898   -1.3761    1.6655 O   0  0  0  0  0  0  0  0  0  0  0  0
    0.0786   -0.0512    1.0541 C   0  0  0  0  0  0  0  0  0  0  0  0
   -0.6802    0.8679    0.3435 C   0  0  0  0  0  0  0  0  0  0  0  0
   -2.0082    0.8236    0.8480 C   0  0  0  0  0  0  0  0  0  0  0  0
   -3.3385    1.7834    0.2828 S   0  0  0  0  0  6  0  0  0  0  0  0
   -4.1085    2.0599    1.4756 O   0  0  0  0  0  0  0  0  0  0  0  0
   -2.7070    2.8372   -0.4829 O   0  0  0  0  0  0  0  0  0  0  0  0
   -4.2737    0.8418   -0.7680 N   0  0  0  0  0  0  0  0  0  0  0  0
   -3.6082    0.4289   -2.0358 C   0  0  0  0  0  0  0  0  0  0  0  0
   -4.6419   -0.1837   -3.0009 C   0  0  0  0  0  0  0  0  0  0  0  0
   -5.3778   -1.3163   -2.4107 N   0  0  0  0  0  0  0  0  0  0  0  0
   -6.0180   -0.8834   -1.1551 C   0  0  0  0  0  0  0  0  0  0  0  0
   -5.0154   -0.2910   -0.1457 C   0  0  0  0  0  0  0  0  0  0  0  0
   -2.0373   -0.1220    1.8511 C   0  0  0  0  0  0  0  0  0  0  0  0
   -0.7785   -0.6465    1.9617 N   0  0  0  0  0  0  0  0  0  0  0  0
    4.4355   -0.8119    0.3587 C   0  0  0  0  0  0  0  0  0  0  0  0
    5.7869   -0.8675    0.0053 C   0  0  0  0  0  0  0  0  0  0  0  0
    6.5882   -1.8534    0.5130 O   0  0  0  0  0  0  0  0  0  0  0  0
  1  2  1  0
  2  3  2  0
  3  4  1  0
  4  5  2  0
  5  6  1  0
  6  7  1  0
  7  8  2  0
  7  9  1  0
  9 10  2  0
 10 11  1  0
 11 12  1  0
 12 13  2  0
 12 14  2  0
 12 15  1  0
 15 16  1  0
 16 17  1  0
 17 18  1  0
 18 19  1  0
 19 20  1  0
 11 21  2  0
 21 22  1  0
  5 23  1  0
 23 24  2  0
 24 25  1  0
 24  2  1  0
 22  9  1  0
 20 15  1  0
M  END
>  <energy>  (232) 
20.88

>  <full_id>  (232) 
MOL00010349-002251-03_1

>  <mol_id>  (232) 
MOL00010349-002251-03

>  <act_mol>  (232) 
0

>  <act_conf>  (232) 
0

$$$$
MOL00009420-001322-04
     RDKit          3D

 27 29  0  0  0  0  0  0  0  0999 V2000
    8.7085    0.0294    1.7240 C   0  0  0  0  0  0  0  0  0  0  0  0
    7.3017    0.3972    1.5995 N   0  0  0  0  0  0  0  0  0  0  0  0
    6.4594   -0.8255    1.5773 C   0  0  0  0  0  0  0  0  0  0  0  0
    5.0013   -0.4669    1.2509 C   0  0  0  0  0  0  0  0  0  0  0  0
    4.0815   -1.2089    1.5787 O   0  0  0  0  0  0  0  0  0  0  0  0
    4.9145    0.7127    0.5401 N   0  0  0  0  0  0  0  0  0  0  0  0
    3.7474    1.3219    0.0617 C   0  0  0  0  0  0  0  0  0  0  0  0
    2.5623    0.7228    0.2632 N   0  0  0  0  0  0  0  0  0  0  0  0
    1.4505    1.3153   -0.1945 C   0  0  0  0  0  0  0  0  0  0  0  0
    0.2744    0.6315    0.0836 N   0  0  0  0  0  0  0  0  0  0  0  0
   -1.0826    0.8745   -0.1408 C   0  0  0  0  0  0  0  0  0  0  0  0
   -1.5565    1.9497   -0.9138 C   0  0  0  0  0  0  0  0  0  0  0  0
   -2.9174    2.1736   -1.1231 C   0  0  0  0  0  0  0  0  0  0  0  0
   -3.8767    1.3303   -0.5670 C   0  0  0  0  0  0  0  0  0  0  0  0
   -3.4274    0.2511    0.2045 C   0  0  0  0  0  0  0  0  0  0  0  0
   -2.0649    0.0114    0.4240 C   0  0  0  0  0  0  0  0  0  0  0  0
   -1.9855   -1.1504    1.2534 C   0  0  0  0  0  0  0  0  0  0  0  0
   -3.2648   -1.5777    1.5182 C   0  0  0  0  0  0  0  0  0  0  0  0
   -4.1290   -0.7383    0.8672 N   0  0  0  0  0  0  0  0  0  0  0  0
   -5.5762   -0.8674    0.9091 C   0  0  0  0  0  0  0  0  0  0  0  0
   -6.1777   -1.4873   -0.3530 C   0  0  0  0  0  0  0  0  0  0  0  0
   -5.7441   -2.9377   -0.5605 C   0  0  0  0  0  0  0  0  0  0  0  0
   -6.4414   -3.5080   -1.7093 N   0  0  0  0  0  0  0  0  0  0  0  0
    1.4671    2.4840   -0.8495 N   0  0  0  0  0  0  0  0  0  0  0  0
    2.6661    3.0681   -1.0393 C   0  0  0  0  0  0  0  0  0  0  0  0
    3.8509    2.5295   -0.6024 C   0  0  0  0  0  0  0  0  0  0  0  0
    5.4812    3.4281   -0.9144 Br  0  0  0  0  0  0  0  0  0  0  0  0
  1  2  1  0
  2  3  1  0
  3  4  1  0
  4  5  2  0
  4  6  1  0
  6  7  1  0
  7  8  2  0
  8  9  1  0
  9 10  1  0
 10 11  1  0
 11 12  2  0
 12 13  1  0
 13 14  2  0
 14 15  1  0
 15 16  2  0
 16 17  1  0
 17 18  2  0
 18 19  1  0
 19 20  1  0
 20 21  1  0
 21 22  1  0
 22 23  1  0
  9 24  2  0
 24 25  1  0
 25 26  2  0
 26 27  1  0
 26  7  1  0
 16 11  1  0
 19 15  1  0
M  END
>  <energy>  (233) 
-33.15

>  <full_id>  (233) 
MOL00009420-001322-04_1

>  <mol_id>  (233) 
MOL00009420-001322-04

>  <act_mol>  (233) 
0

>  <act_conf>  (233) 
0

$$$$
MOL00010038-001015-04
     RDKit          3D

 31 32  0  0  0  0  0  0  0  0999 V2000
   -0.6861   -4.6409   -1.4109 C   0  0  0  0  0  0  0  0  0  0  0  0
   -0.3763   -3.3581   -1.9417 O   0  0  0  0  0  0  0  0  0  0  0  0
   -0.7968   -2.2626   -1.2349 C   0  0  0  0  0  0  0  0  0  0  0  0
   -1.5198   -2.3229   -0.0417 C   0  0  0  0  0  0  0  0  0  0  0  0
   -1.9065   -1.1463    0.6052 C   0  0  0  0  0  0  0  0  0  0  0  0
   -2.5836   -1.2787    1.7927 O   0  0  0  0  0  0  0  0  0  0  0  0
   -3.9717   -1.0028    1.6114 C   0  0  0  0  0  0  0  0  0  0  0  0
   -4.5841   -0.7020    2.9656 C   0  0  0  0  0  0  0  0  0  0  0  0
   -3.9234    0.3698    3.7938 C   0  0  0  0  0  0  0  0  0  0  0  0
   -5.6070   -1.2705    3.3543 O   0  0  0  0  0  0  0  0  0  0  0  0
   -1.5465    0.1119    0.1088 C   0  0  0  0  0  0  0  0  0  0  0  0
   -1.9426    1.1947    0.8488 O   0  0  0  0  0  0  0  0  0  0  0  0
   -1.3931    2.4576    0.4840 C   0  0  0  0  0  0  0  0  0  0  0  0
   -0.8363    0.1705   -1.0896 C   0  0  0  0  0  0  0  0  0  0  0  0
   -0.4555   -1.0074   -1.7722 C   0  0  0  0  0  0  0  0  0  0  0  0
    0.3180   -0.8766   -3.0657 C   0  0  0  0  0  0  0  0  0  0  0  0
    1.6001   -0.2437   -2.8387 N   0  0  0  0  0  0  0  0  0  0  0  0
    1.8971    1.0140   -3.3118 C   0  0  0  0  0  0  0  0  0  0  0  0
    1.1673    1.6410   -4.0751 O   0  0  0  0  0  0  0  0  0  0  0  0
    3.2596    1.5505   -2.8627 C   0  0  0  0  0  0  0  0  0  0  0  0
    3.7059    1.1000   -1.5815 O   0  0  0  0  0  0  0  0  0  0  0  0
    3.0278    1.6451   -0.5421 C   0  0  0  0  0  0  0  0  0  0  0  0
    2.0687    2.3929   -0.5964 O   0  0  0  0  0  0  0  0  0  0  0  0
    3.6682    1.2235    0.7076 C   0  0  0  0  0  0  0  0  0  0  0  0
    3.5108   -0.0810    1.1863 C   0  0  0  0  0  0  0  0  0  0  0  0
    2.6009   -1.2784    0.3384 Cl  0  0  0  0  0  0  0  0  0  0  0  0
    4.0995   -0.4564    2.3986 C   0  0  0  0  0  0  0  0  0  0  0  0
    4.8408    0.4670    3.1343 C   0  0  0  0  0  0  0  0  0  0  0  0
    5.0004    1.7677    2.6570 C   0  0  0  0  0  0  0  0  0  0  0  0
    4.4164    2.1494    1.4448 C   0  0  0  0  0  0  0  0  0  0  0  0
    4.6828    3.7689    0.9043 Cl  0  0  0  0  0  0  0  0  0  0  0  0
  1  2  1  0
  2  3  1  0
  3  4  2  0
  4  5  1  0
  5  6  1  0
  6  7  1  0
  7  8  1  0
  8  9  1  0
  8 10  2  0
  5 11  2  0
 11 12  1  0
 12 13  1  0
 11 14  1  0
 14 15  2  0
 15 16  1  0
 16 17  1  0
 17 18  1  0
 18 19  2  0
 18 20  1  0
 20 21  1  0
 21 22  1  0
 22 23  2  0
 22 24  1  0
 24 25  2  0
 25 26  1  0
 25 27  1  0
 27 28  2  0
 28 29  1  0
 29 30  2  0
 30 31  1  0
 15  3  1  0
 30 24  1  0
M  END
>  <energy>  (234) 
56.38

>  <full_id>  (234) 
MOL00010038-001015-04_1

>  <mol_id>  (234) 
MOL00010038-001015-04

>  <act_mol>  (234) 
0

>  <act_conf>  (234) 
0

$$$$
MOL00010492-000053-00
     RDKit          3D

 22 25  0  0  0  0  0  0  0  0999 V2000
    0.2983   -1.6763   -0.0362 O   0  0  0  0  0  0  0  0  0  0  0  0
    0.0876   -0.6487   -0.6639 C   0  0  0  0  0  0  0  0  0  0  0  0
    1.0329   -0.0016   -1.4624 N   0  0  0  0  0  0  0  0  0  0  0  0
    2.5599   -0.5233   -1.7648 S   0  0  0  0  0  6  0  0  0  0  0  0
    3.1747    0.4858   -2.6025 O   0  0  0  0  0  0  0  0  0  0  0  0
    2.5249   -1.9075   -2.1794 O   0  0  0  0  0  0  0  0  0  0  0  0
    3.3379   -0.4225   -0.1696 C   0  0  0  0  0  0  0  0  0  0  0  0
    3.8918    0.7917    0.2513 C   0  0  0  0  0  0  0  0  0  0  0  0
    4.5249    0.8645    1.4941 C   0  0  0  0  0  0  0  0  0  0  0  0
    4.6077   -0.2727    2.2994 C   0  0  0  0  0  0  0  0  0  0  0  0
    5.3859   -0.1772    3.8308 Cl  0  0  0  0  0  0  0  0  0  0  0  0
    4.0675   -1.4863    1.8721 C   0  0  0  0  0  0  0  0  0  0  0  0
    3.4348   -1.5660    0.6297 C   0  0  0  0  0  0  0  0  0  0  0  0
   -1.1907    0.0729   -0.6419 C   0  0  0  0  0  0  0  0  0  0  0  0
   -1.3678    1.2482   -1.3121 N   0  0  0  0  0  0  0  0  0  0  0  0
   -2.6569    1.6009   -1.0536 N   0  0  0  0  0  0  0  0  0  0  0  0
   -3.2618    0.7024   -0.2597 C   0  0  0  0  0  0  0  0  0  0  0  0
   -2.3685   -0.2863    0.0299 C   0  0  0  0  0  0  0  0  0  0  0  0
   -2.9095   -1.3504    0.9111 C   0  0  0  0  0  0  0  0  0  0  0  0
   -4.3692   -0.9001    1.1438 C   0  0  1  0  0  0  0  0  0  0  0  0
   -4.7124    0.3522    1.9115 C   0  0  0  0  0  0  0  0  0  0  0  0
   -4.6174    0.4386    0.4140 C   0  0  1  0  0  0  0  0  0  0  0  0
  1  2  2  0
  2  3  1  0
  4  3  1  0
  4  5  2  0
  4  6  2  0
  4  7  1  0
  7  8  2  0
  8  9  1  0
  9 10  2  0
 10 11  1  0
 10 12  1  0
 12 13  2  0
  2 14  1  0
 14 15  2  0
 15 16  1  0
 16 17  1  0
 17 18  2  0
 18 19  1  0
 20 19  1  1
 20 21  1  0
 22 21  1  1
 13  7  1  0
 18 14  1  0
 22 20  1  0
 22 17  1  0
M  END
>  <energy>  (235) 
-25.25

>  <full_id>  (235) 
MOL00010492-000053-00_1

>  <mol_id>  (235) 
MOL00010492-000053-00

>  <act_mol>  (235) 
0

>  <act_conf>  (235) 
0

$$$$
MOL00009350-001670-03
     RDKit          3D

 31 34  0  0  0  0  0  0  0  0999 V2000
    8.0863    2.8934   -1.7561 O   0  0  0  0  0  0  0  0  0  0  0  0
    7.5253    2.8237   -0.6529 N   0  0  0  0  0  4  0  0  0  0  0  0
    8.0631    3.1093    0.4268 O   0  0  0  0  0  1  0  0  0  0  0  0
    6.1282    2.3743   -0.6233 C   0  0  0  0  0  0  0  0  0  0  0  0
    5.4577    2.2734    0.6021 C   0  0  0  0  0  0  0  0  0  0  0  0
    4.1287    1.8437    0.6254 C   0  0  0  0  0  0  0  0  0  0  0  0
    3.4615    1.5224   -0.5670 C   0  0  0  0  0  0  0  0  0  0  0  0
    2.0314    1.0331   -0.5328 C   0  0  0  0  0  0  0  0  0  0  0  0
    2.0663   -0.3810   -0.3504 O   0  0  0  0  0  0  0  0  0  0  0  0
    0.8098   -0.9527   -0.3188 C   0  0  0  0  0  0  0  0  0  0  0  0
    0.7673   -2.3168   -0.1940 C   0  0  0  0  0  0  0  0  0  0  0  0
   -0.4886   -2.8871   -0.1559 C   0  0  0  0  0  0  0  0  0  0  0  0
   -0.6795   -4.3505   -0.0254 C   0  0  0  0  0  0  0  0  0  0  0  0
    0.4623   -5.1053   -0.0807 N   0  0  0  0  0  0  0  0  0  0  0  0
    0.3470   -6.4490    0.0271 C   0  0  0  0  0  0  0  0  0  0  0  0
   -0.8578   -7.1071    0.1944 C   0  0  0  0  0  0  0  0  0  0  0  0
   -2.0148   -6.3419    0.2561 C   0  0  0  0  0  0  0  0  0  0  0  0
   -1.9270   -4.9564    0.1464 C   0  0  0  0  0  0  0  0  0  0  0  0
   -3.0649   -4.2506    0.2230 F   0  0  0  0  0  0  0  0  0  0  0  0
   -1.5992   -2.1200   -0.2421 N   0  0  0  0  0  0  0  0  0  0  0  0
   -1.4563   -0.7973   -0.3649 C   0  0  0  0  0  0  0  0  0  0  0  0
   -2.6362   -0.0807   -0.4529 N   0  0  0  0  0  0  0  0  0  0  0  0
   -2.6565    1.2526    0.1326 C   0  0  0  0  0  0  0  0  0  0  0  0
   -2.6647    1.1795    1.6676 C   0  0  0  0  0  0  0  0  0  0  0  0
   -2.8158    2.5626    2.2970 C   0  0  0  0  0  0  0  0  0  0  0  0
   -4.0533    3.2870    1.7772 C   0  0  0  0  0  0  0  0  0  0  0  0
   -4.0621    3.3601    0.2537 C   0  0  0  0  0  0  0  0  0  0  0  0
   -3.9132    1.9773   -0.3753 C   0  0  0  0  0  0  0  0  0  0  0  0
   -0.2775   -0.1742   -0.3995 N   0  0  0  0  0  0  0  0  0  0  0  0
    4.1501    1.6168   -1.7863 C   0  0  0  0  0  0  0  0  0  0  0  0
    5.4792    2.0456   -1.8200 C   0  0  0  0  0  0  0  0  0  0  0  0
  1  2  2  0
  2  3  1  0
  2  4  1  0
  4  5  2  0
  5  6  1  0
  6  7  2  0
  7  8  1  0
  8  9  1  0
  9 10  1  0
 10 11  2  0
 11 12  1  0
 12 13  1  0
 13 14  2  0
 14 15  1  0
 15 16  2  0
 16 17  1  0
 17 18  2  0
 18 19  1  0
 12 20  2  0
 20 21  1  0
 21 22  1  0
 23 22  1  0
 23 24  1  0
 24 25  1  0
 25 26  1  0
 26 27  1  0
 27 28  1  0
 21 29  2  0
  7 30  1  0
 30 31  2  0
 31  4  1  0
 29 10  1  0
 18 13  1  0
 28 23  1  0
M  CHG  2   2   1   3  -1
M  END
>  <energy>  (236) 
-11.68

>  <full_id>  (236) 
MOL00009350-001670-03_1

>  <mol_id>  (236) 
MOL00009350-001670-03

>  <act_mol>  (236) 
0

>  <act_conf>  (236) 
0

$$$$
MOL00010062-000244-03
     RDKit          3D

 27 28  0  0  0  0  0  0  0  0999 V2000
   -5.4042    0.7781    3.8127 C   0  0  0  0  0  0  0  0  0  0  0  0
   -4.1289    0.7014    3.1743 O   0  0  0  0  0  0  0  0  0  0  0  0
   -3.1646    0.0517    4.0203 C   0  0  0  0  0  0  0  0  0  0  0  0
   -1.8107    0.1257    3.3036 C   0  0  0  0  0  0  0  0  0  0  0  0
   -2.0399   -0.0660    1.8065 N   0  0  1  0  0  4  0  0  0  0  0  0
   -1.0150    0.6899    0.9626 C   0  0  0  0  0  0  0  0  0  0  0  0
    0.4252    0.1816    1.0857 C   0  0  0  0  0  0  0  0  0  0  0  0
    0.6916   -0.7689    1.8166 O   0  0  0  0  0  0  0  0  0  0  0  0
    1.3213    0.8691    0.2845 N   0  0  0  0  0  0  0  0  0  0  0  0
    2.7360    0.7604    0.3784 C   0  0  0  0  0  0  0  0  0  0  0  0
    3.3702    0.5103    1.6076 C   0  0  0  0  0  0  0  0  0  0  0  0
    2.6647    0.4475    2.7476 F   0  0  0  0  0  0  0  0  0  0  0  0
    4.7520    0.4288    1.7062 C   0  0  0  0  0  0  0  0  0  0  0  0
    5.5340    0.6260    0.5746 C   0  0  0  0  0  0  0  0  0  0  0  0
    4.9419    0.9191   -0.6653 C   0  0  0  0  0  0  0  0  0  0  0  0
    5.8528    1.1463   -1.8457 C   0  0  0  0  0  0  0  0  0  0  0  0
    3.5286    0.9789   -0.7767 C   0  0  0  0  0  0  0  0  0  0  0  0
    2.8810    1.2765   -2.1085 C   0  0  0  0  0  0  0  0  0  0  0  0
   -2.2154   -1.5206    1.4404 C   0  0  0  0  0  0  0  0  0  0  0  0
   -2.5125   -1.7468   -0.0197 C   0  0  0  0  0  0  0  0  0  0  0  0
   -3.7534   -1.3791   -0.5628 C   0  0  0  0  0  0  0  0  0  0  0  0
   -4.0140   -1.5693   -1.9233 C   0  0  0  0  0  0  0  0  0  0  0  0
   -3.0401   -2.1287   -2.7564 C   0  0  0  0  0  0  0  0  0  0  0  0
   -3.3067   -2.3161   -4.1529 C   0  0  0  0  0  0  0  0  0  0  0  0
   -3.5163   -2.4508   -5.2853 N   0  0  0  0  0  0  0  0  0  0  0  0
   -1.8034   -2.4997   -2.2208 C   0  0  0  0  0  0  0  0  0  0  0  0
   -1.5402   -2.3105   -0.8612 C   0  0  0  0  0  0  0  0  0  0  0  0
  1  2  1  0
  2  3  1  0
  3  4  1  0
  5  4  1  1
  5  6  1  0
  6  7  1  0
  7  8  2  0
  7  9  1  0
  9 10  1  0
 10 11  2  0
 11 12  1  0
 11 13  1  0
 13 14  2  0
 14 15  1  0
 15 16  1  0
 15 17  2  0
 17 18  1  0
  5 19  1  0
 19 20  1  0
 20 21  2  0
 21 22  1  0
 22 23  2  0
 23 24  1  0
 24 25  3  0
 23 26  1  0
 26 27  2  0
 17 10  1  0
 27 20  1  0
M  CHG  1   5   1
M  END
>  <energy>  (237) 
109.72

>  <full_id>  (237) 
MOL00010062-000244-03_1

>  <mol_id>  (237) 
MOL00010062-000244-03

>  <act_mol>  (237) 
0

>  <act_conf>  (237) 
0

$$$$
MOL00010258-000038-04
     RDKit          3D

 25 27  0  0  0  0  0  0  0  0999 V2000
    4.5136   -0.1229    2.9957 C   0  0  0  0  0  0  0  0  0  0  0  0
    3.8238    0.4971    1.8131 C   0  0  0  0  0  0  0  0  0  0  0  0
    3.7439   -0.1952    0.5961 C   0  0  0  0  0  0  0  0  0  0  0  0
    3.0889    0.3625   -0.5157 C   0  0  0  0  0  0  0  0  0  0  0  0
    2.9489   -0.3942   -1.8238 C   0  0  1  0  0  0  0  0  0  0  0  0
    4.2496   -0.6028   -2.5018 N   0  0  0  0  0  0  0  0  0  0  0  0
    4.3047   -2.0032   -2.8966 N   0  0  0  0  0  0  0  0  0  0  0  0
    2.9178   -2.4761   -2.9157 C   0  0  0  0  0  0  0  0  0  0  0  0
    2.3314   -1.7856   -1.7044 C   0  0  2  0  0  0  0  0  0  0  0  0
    0.8189   -1.7455   -1.7129 C   0  0  0  0  0  0  0  0  0  0  0  0
    0.1391   -2.1210   -2.6630 O   0  0  0  0  0  0  0  0  0  0  0  0
    0.2724   -1.2685   -0.5377 N   0  0  0  0  0  0  0  0  0  0  0  0
   -1.1602   -1.0830   -0.3618 C   0  0  1  0  0  0  0  0  0  0  0  0
   -1.5121   -1.1212    1.1290 C   0  0  0  0  0  0  0  0  0  0  0  0
   -2.9983   -0.8633    1.3682 C   0  0  0  0  0  0  0  0  0  0  0  0
   -3.4502    0.4686    0.7355 C   0  0  2  0  0  0  0  0  0  0  0  0
   -4.8599    0.7488    1.0727 N   0  0  0  0  0  0  0  0  0  0  0  0
   -5.8377   -0.0840    0.3744 C   0  0  0  0  0  0  0  0  0  0  0  0
   -5.1946    2.1643    0.9025 C   0  0  0  0  0  0  0  0  0  0  0  0
   -3.1073    0.4884   -0.7662 C   0  0  0  0  0  0  0  0  0  0  0  0
   -1.6171    0.2337   -1.0010 C   0  0  0  0  0  0  0  0  0  0  0  0
    2.5367    1.6481   -0.3952 C   0  0  0  0  0  0  0  0  0  0  0  0
    2.6268    2.3534    0.8054 C   0  0  0  0  0  0  0  0  0  0  0  0
    3.2674    1.7751    1.8973 C   0  0  0  0  0  0  0  0  0  0  0  0
    3.3614    2.4552    3.0790 O   0  0  0  0  0  0  0  0  0  0  0  0
  1  2  1  0
  2  3  2  0
  3  4  1  0
  5  4  1  1
  5  6  1  0
  6  7  1  0
  7  8  1  0
  8  9  1  0
  9 10  1  6
 10 11  2  0
 10 12  1  0
 13 12  1  1
 13 14  1  0
 14 15  1  0
 15 16  1  0
 16 17  1  6
 17 18  1  0
 17 19  1  0
 16 20  1  0
 20 21  1  0
  4 22  2  0
 22 23  1  0
 23 24  2  0
 24 25  1  0
 24  2  1  0
  9  5  1  0
 21 13  1  0
M  END
>  <energy>  (238) 
36.14

>  <full_id>  (238) 
MOL00010258-000038-04_1

>  <mol_id>  (238) 
MOL00010258-000038-04

>  <act_mol>  (238) 
0

>  <act_conf>  (238) 
0

$$$$
MOL00010321-001054-03
     RDKit          3D

 34 36  0  0  0  0  0  0  0  0999 V2000
   -2.4884   -3.0297   -2.9502 C   0  0  0  0  0  0  0  0  0  0  0  0
   -3.2949   -2.1127   -2.0482 C   0  0  0  0  0  0  0  0  0  0  0  0
   -2.3774   -1.3498   -1.2668 O   0  0  0  0  0  0  0  0  0  0  0  0
   -2.9030   -0.4114   -0.4050 C   0  0  0  0  0  0  0  0  0  0  0  0
   -4.2705   -0.2132   -0.1826 C   0  0  0  0  0  0  0  0  0  0  0  0
   -4.7032    0.7675    0.7194 C   0  0  0  0  0  0  0  0  0  0  0  0
   -6.1788    0.9797    0.9757 C   0  0  0  0  0  0  0  0  0  0  0  0
   -6.5115    2.1197    1.5316 N   0  0  0  0  0  0  0  0  0  0  0  0
   -7.8119    2.3146    1.8605 N   0  0  0  0  0  0  0  0  0  0  0  0
   -7.0408   -0.0672    0.5845 N   0  0  0  0  0  0  0  0  0  0  0  0
   -7.2145   -1.1855    1.5134 C   0  0  0  0  0  0  0  0  0  0  0  0
   -8.2298    0.3703   -0.0861 N   0  0  0  0  0  0  0  0  0  0  0  0
   -3.7578    1.5541    1.3832 C   0  0  0  0  0  0  0  0  0  0  0  0
   -2.3910    1.3547    1.1639 C   0  0  0  0  0  0  0  0  0  0  0  0
   -1.9402    0.3722    0.2776 C   0  0  0  0  0  0  0  0  0  0  0  0
   -0.5825    0.1265    0.0188 N   0  0  0  0  0  0  0  0  0  0  0  0
    0.6153    0.6463    0.4853 C   0  0  0  0  0  0  0  0  0  0  0  0
    0.6540    1.6290    1.3895 N   0  0  0  0  0  0  0  0  0  0  0  0
    1.8680    2.0627    1.7757 C   0  0  0  0  0  0  0  0  0  0  0  0
    3.0733    1.5602    1.3037 C   0  0  0  0  0  0  0  0  0  0  0  0
    4.3521    2.0175    1.7016 C   0  0  0  0  0  0  0  0  0  0  0  0
    4.5474    3.1171    2.7013 C   0  0  0  0  0  0  0  0  0  0  0  0
    5.4492    1.4030    1.1222 C   0  0  0  0  0  0  0  0  0  0  0  0
    5.3623    0.4087    0.2193 N   0  0  0  0  0  0  0  0  0  0  0  0
    4.1271   -0.0115   -0.1490 C   0  0  0  0  0  0  0  0  0  0  0  0
    4.0189   -1.1066   -1.0454 N   0  0  0  0  0  0  0  0  0  0  0  0
    5.2192   -1.4299   -1.8144 C   0  0  0  0  0  0  0  0  0  0  0  0
    6.1282   -2.3773   -1.0415 C   0  0  0  0  0  0  0  0  0  0  0  0
    7.3399   -2.7233   -1.8623 C   0  0  0  0  0  0  0  0  0  0  0  0
    7.5225   -2.4057   -3.0296 O   0  0  0  0  0  0  0  0  0  0  0  0
    8.2038   -3.4675   -1.1133 O   0  0  0  0  0  0  0  0  0  0  0  0
    9.3916   -3.8532   -1.8055 C   0  0  0  0  0  0  0  0  0  0  0  0
    2.9337    0.5331    0.3701 C   0  0  0  0  0  0  0  0  0  0  0  0
    1.7187    0.0944   -0.0380 N   0  0  0  0  0  0  0  0  0  0  0  0
  1  2  1  0
  2  3  1  0
  3  4  1  0
  4  5  2  0
  5  6  1  0
  6  7  1  0
  7  8  2  0
  8  9  1  0
  7 10  1  0
 10 11  1  0
 10 12  1  0
  6 13  2  0
 13 14  1  0
 14 15  2  0
 15 16  1  0
 16 17  1  0
 17 18  2  0
 18 19  1  0
 19 20  2  0
 20 21  1  0
 21 22  1  0
 21 23  2  0
 23 24  1  0
 24 25  2  0
 25 26  1  0
 26 27  1  0
 27 28  1  0
 28 29  1  0
 29 30  2  0
 29 31  1  0
 31 32  1  0
 25 33  1  0
 33 34  2  0
 15  4  1  0
 34 17  1  0
 33 20  1  0
M  END
>  <energy>  (239) 
58.68

>  <full_id>  (239) 
MOL00010321-001054-03_1

>  <mol_id>  (239) 
MOL00010321-001054-03

>  <act_mol>  (239) 
0

>  <act_conf>  (239) 
0

$$$$
MOL00010660-000404-03
     RDKit          3D

 20 22  0  0  0  0  0  0  0  0999 V2000
    3.7107   -1.8004   -1.7002 O   0  0  0  0  0  0  0  0  0  0  0  0
    4.1232   -0.8751   -1.0022 C   0  0  0  0  0  0  0  0  0  0  0  0
    5.2775   -0.1908   -1.2997 N   0  0  0  0  0  0  0  0  0  0  0  0
    5.7502    0.8641   -0.5670 C   0  0  0  0  0  0  0  0  0  0  0  0
    5.0809    1.2861    0.5110 C   0  0  0  0  0  0  0  0  0  0  0  0
    3.8601    0.6244    0.9116 C   0  0  0  0  0  0  0  0  0  0  0  0
    3.3525   -0.4194    0.2323 C   0  0  0  0  0  0  0  0  0  0  0  0
    2.1994   -1.1367    0.5299 N   0  0  0  0  0  0  0  0  0  0  0  0
    1.0261   -0.6375    1.2375 C   0  0  1  0  0  0  0  0  0  0  0  0
    0.2089    0.2997    0.3411 C   0  0  0  0  0  0  0  0  0  0  0  0
   -0.4754   -0.4312   -0.8158 C   0  0  0  0  0  0  0  0  0  0  0  0
   -1.3484   -1.5992   -0.3390 C   0  0  2  0  0  0  0  0  0  0  0  0
   -2.6513   -1.0999    0.2931 C   0  0  0  0  0  0  0  0  0  0  0  0
   -2.9190   -1.2352    1.4830 O   0  0  0  0  0  0  0  0  0  0  0  0
   -3.4940   -0.4739   -0.6072 N   0  0  0  0  0  0  0  0  0  0  0  0
   -4.7567    0.0670   -0.2197 C   0  0  0  0  0  0  0  0  0  0  0  0
   -5.5235    0.9675   -1.1488 C   0  0  0  0  0  0  0  0  0  0  0  0
   -4.8923    1.5318    0.0898 C   0  0  0  0  0  0  0  0  0  0  0  0
   -0.5702   -2.5391    0.5924 C   0  0  0  0  0  0  0  0  0  0  0  0
    0.1778   -1.8196    1.7192 C   0  0  0  0  0  0  0  0  0  0  0  0
  1  2  2  0
  2  3  1  0
  3  4  1  0
  4  5  2  0
  5  6  1  0
  6  7  2  0
  7  8  1  0
  9  8  1  6
  9 10  1  0
 10 11  1  0
 11 12  1  0
 12 13  1  1
 13 14  2  0
 13 15  1  0
 16 15  1  0
 16 17  1  0
 17 18  1  0
 12 19  1  0
 19 20  1  0
  7  2  1  0
 20  9  1  0
 18 16  1  0
M  END
>  <energy>  (240) 
32.63

>  <full_id>  (240) 
MOL00010660-000404-03_1

>  <mol_id>  (240) 
MOL00010660-000404-03

>  <act_mol>  (240) 
0

>  <act_conf>  (240) 
0

$$$$
MOL00010767-000032-04
     RDKit          3D

 21 21  0  0  0  0  0  0  0  0999 V2000
    5.6759    3.3774   -1.5565 C   0  0  0  0  0  0  0  0  0  0  0  0
    5.4076    2.2183   -1.7223 C   0  0  0  0  0  0  0  0  0  0  0  0
    5.0792    0.8019   -1.9229 C   0  0  0  0  0  0  0  0  0  0  0  0
    4.9499    0.1630   -0.6210 N   0  0  0  0  0  0  0  0  0  0  0  0
    4.2552   -1.3556   -0.5702 S   0  0  0  0  0  6  0  0  0  0  0  0
    4.5341   -2.0228   -1.8216 O   0  0  0  0  0  0  0  0  0  0  0  0
    4.6208   -1.9341    0.7032 O   0  0  0  0  0  0  0  0  0  0  0  0
    2.5245   -0.9667   -0.4962 C   0  0  0  0  0  0  0  0  0  0  0  0
    1.7072   -1.1980   -1.6055 C   0  0  0  0  0  0  0  0  0  0  0  0
    0.3458   -0.8959   -1.5281 C   0  0  0  0  0  0  0  0  0  0  0  0
   -0.1992   -0.3827   -0.3421 C   0  0  0  0  0  0  0  0  0  0  0  0
   -1.6551   -0.0730   -0.3101 C   0  0  0  0  0  0  0  0  0  0  0  0
   -2.2315    0.2467   -1.3427 O   0  0  0  0  0  0  0  0  0  0  0  0
   -2.2773   -0.1941    0.9137 N   0  0  0  0  0  0  0  0  0  0  0  0
   -3.7391   -0.0806    1.1340 C   0  0  0  0  0  0  0  0  0  0  0  0
   -3.9648   -0.1030    2.6593 C   0  0  0  0  0  0  0  0  0  0  0  0
   -4.4538   -1.2910    0.5121 C   0  0  0  0  0  0  0  0  0  0  0  0
   -4.3235    1.2589    0.5946 C   0  0  0  0  0  0  0  0  0  0  0  0
   -4.5652    1.2570   -0.8078 O   0  0  0  0  0  0  0  0  0  0  0  0
    0.6303   -0.1503    0.7645 C   0  0  0  0  0  0  0  0  0  0  0  0
    1.9932   -0.4490    0.6901 C   0  0  0  0  0  0  0  0  0  0  0  0
  1  2  3  0
  2  3  1  0
  3  4  1  0
  5  4  1  0
  5  6  2  0
  5  7  2  0
  5  8  1  0
  8  9  2  0
  9 10  1  0
 10 11  2  0
 11 12  1  0
 12 13  2  0
 12 14  1  0
 14 15  1  0
 15 16  1  0
 15 17  1  0
 15 18  1  0
 18 19  1  0
 11 20  1  0
 20 21  2  0
 21  8  1  0
M  END
>  <energy>  (241) 
-43.85

>  <full_id>  (241) 
MOL00010767-000032-04_1

>  <mol_id>  (241) 
MOL00010767-000032-04

>  <act_mol>  (241) 
0

>  <act_conf>  (241) 
0

$$$$
MOL00010543-000610-03
     RDKit          3D

 34 36  0  0  0  0  0  0  0  0999 V2000
    1.3756    0.7855   -2.5108 C   0  0  0  0  0  0  0  0  0  0  0  0
    1.2460    0.1388   -1.2039 N   0  0  0  0  0  0  0  0  0  0  0  0
    0.2021    0.5404   -0.3373 C   0  0  0  0  0  0  0  0  0  0  0  0
    0.2908    0.5049    0.8919 O   0  0  0  0  0  0  0  0  0  0  0  0
   -1.0499    1.0162   -0.9310 C   0  0  0  0  0  0  0  0  0  0  0  0
   -1.4120    0.9574   -2.2024 N   0  0  0  0  0  0  0  0  0  0  0  0
   -2.6777    1.4781   -2.2618 C   0  0  0  0  0  0  0  0  0  0  0  0
   -3.1185    1.8486   -1.0114 C   0  0  0  0  0  0  0  0  0  0  0  0
   -4.3983    2.4423   -0.5438 C   0  0  0  0  0  0  0  0  0  0  0  0
   -5.2759    1.4292    0.1223 C   0  0  0  0  0  0  0  0  0  0  0  0
   -5.4215    1.2128    1.5326 C   0  0  0  0  0  0  0  0  0  0  0  0
   -4.7069    1.9659    2.6272 C   0  0  0  0  0  0  0  0  0  0  0  0
   -4.8928    1.4560    3.8712 F   0  0  0  0  0  0  0  0  0  0  0  0
   -3.3592    1.9832    2.4072 F   0  0  0  0  0  0  0  0  0  0  0  0
   -5.0951    3.2700    2.6683 F   0  0  0  0  0  0  0  0  0  0  0  0
   -6.2981    0.2213    1.7793 N   0  0  0  0  0  0  0  0  0  0  0  0
   -6.6757   -0.2091    0.5693 N   0  0  0  0  0  0  0  0  0  0  0  0
   -6.1128    0.4936   -0.4625 C   0  0  0  0  0  0  0  0  0  0  0  0
   -6.4187    0.1654   -1.8904 C   0  0  0  0  0  0  0  0  0  0  0  0
   -7.9031    0.2510   -2.2151 C   0  0  0  0  0  0  0  0  0  0  0  0
   -8.5715   -0.7161   -1.5290 F   0  0  0  0  0  0  0  0  0  0  0  0
   -8.0947   -0.0086   -3.5325 F   0  0  0  0  0  0  0  0  0  0  0  0
   -2.0717    1.5461   -0.1757 N   0  0  0  0  0  0  0  0  0  0  0  0
    2.2202   -0.8690   -0.8398 C   0  0  0  0  0  0  0  0  0  0  0  0
    3.2430   -1.2468   -1.7292 C   0  0  0  0  0  0  0  0  0  0  0  0
    4.1831   -2.2349   -1.4032 C   0  0  0  0  0  0  0  0  0  0  0  0
    4.1293   -2.8913   -0.1735 C   0  0  0  0  0  0  0  0  0  0  0  0
    5.1457   -3.9523    0.1834 C   0  0  0  0  0  0  0  0  0  0  0  0
    6.4708   -3.4251    0.7870 C   0  0  0  0  0  0  0  0  0  0  0  0
    7.3962   -4.6132    1.0750 C   0  0  0  0  0  0  0  0  0  0  0  0
    6.2664   -2.6177    2.0729 C   0  0  0  0  0  0  0  0  0  0  0  0
    7.1541   -2.6032   -0.1668 O   0  0  0  0  0  0  0  0  0  0  0  0
    3.1080   -2.5490    0.7124 C   0  0  0  0  0  0  0  0  0  0  0  0
    2.1688   -1.5614    0.3794 C   0  0  0  0  0  0  0  0  0  0  0  0
  1  2  1  0
  2  3  1  0
  3  4  2  0
  3  5  1  0
  5  6  2  0
  6  7  1  0
  7  8  2  0
  8  9  1  0
  9 10  1  0
 10 11  1  0
 11 12  1  0
 12 13  1  0
 12 14  1  0
 12 15  1  0
 11 16  2  0
 16 17  1  0
 17 18  1  0
 18 19  1  0
 19 20  1  0
 20 21  1  0
 20 22  1  0
  8 23  1  0
  2 24  1  0
 24 25  2  0
 25 26  1  0
 26 27  2  0
 27 28  1  0
 28 29  1  0
 29 30  1  0
 29 31  1  0
 29 32  1  0
 27 33  1  0
 33 34  2  0
 23  5  1  0
 34 24  1  0
 18 10  2  0
M  END
>  <energy>  (242) 
160.20

>  <full_id>  (242) 
MOL00010543-000610-03_1

>  <mol_id>  (242) 
MOL00010543-000610-03

>  <act_mol>  (242) 
0

>  <act_conf>  (242) 
0

$$$$
MOL00010061-000271-03
     RDKit          3D

 36 40  0  0  0  0  0  0  0  0999 V2000
    5.0931   -2.1901   -0.1889 O   0  0  0  0  0  0  0  0  0  0  0  0
    5.1677   -1.2781    0.6322 C   0  0  0  0  0  0  0  0  0  0  0  0
    6.5179   -0.8042    1.1481 C   0  0  0  0  0  0  0  0  0  0  0  0
    7.1097    0.3224    0.3375 C   0  0  0  0  0  0  0  0  0  0  0  0
    7.3822    0.1512   -1.0276 C   0  0  0  0  0  0  0  0  0  0  0  0
    7.9571    1.1836   -1.7721 C   0  0  0  0  0  0  0  0  0  0  0  0
    8.2735    2.4000   -1.1592 C   0  0  0  0  0  0  0  0  0  0  0  0
    8.8787    3.4704   -1.9889 C   0  0  0  0  0  0  0  0  0  0  0  0
    9.1364    3.3966   -3.1757 O   0  0  0  0  0  0  0  0  0  0  0  0
    9.1293    4.5948   -1.2929 O   0  0  0  0  0  0  0  0  0  0  0  0
    8.0063    2.5780    0.2033 C   0  0  0  0  0  0  0  0  0  0  0  0
    7.4298    1.5439    0.9469 C   0  0  0  0  0  0  0  0  0  0  0  0
    4.1037   -0.5998    1.2002 N   0  0  0  0  0  0  0  0  0  0  0  0
    2.7269   -0.8560    1.0232 C   0  0  0  0  0  0  0  0  0  0  0  0
    2.2051   -1.7755    0.1177 C   0  0  0  0  0  0  0  0  0  0  0  0
    0.8208   -1.9890    0.0553 C   0  0  0  0  0  0  0  0  0  0  0  0
   -0.0597   -1.2945    0.8979 C   0  0  0  0  0  0  0  0  0  0  0  0
   -1.4229   -1.6174    0.8024 N   0  0  0  0  0  0  0  0  0  0  0  0
   -2.4749   -1.1693    1.5846 C   0  0  0  0  0  0  0  0  0  0  0  0
   -2.3996   -0.3214    2.4719 O   0  0  0  0  0  0  0  0  0  0  0  0
   -3.8161   -1.8811    1.2663 C   0  0  2  0  0  0  0  0  0  0  0  0
   -3.6101   -2.9455    0.2005 N   0  0  0  0  0  0  0  0  0  0  0  0
   -4.5410   -2.6083   -0.8400 N   0  0  0  0  0  0  0  0  0  0  0  0
   -5.1901   -1.4292   -0.5270 C   0  0  0  0  0  0  0  0  0  0  0  0
   -4.8334   -0.9712    0.6746 C   0  0  0  0  0  0  0  0  0  0  0  0
   -5.3581    0.2780    1.2846 C   0  0  0  0  0  0  0  0  0  0  0  0
   -6.6286    0.7974    0.5760 C   0  0  0  0  0  0  0  0  0  0  0  0
   -6.8069    0.3331   -0.8579 C   0  0  0  0  0  0  0  0  0  0  0  0
   -6.1211   -0.7139   -1.3697 C   0  0  0  0  0  0  0  0  0  0  0  0
   -6.3365   -1.1752   -2.7916 C   0  0  0  0  0  0  0  0  0  0  0  0
   -7.0349   -0.1487   -3.7008 C   0  0  0  0  0  0  0  0  0  0  0  0
   -7.9037    0.8341   -2.9741 C   0  0  0  0  0  0  0  0  0  0  0  0
   -7.7917    1.0389   -1.6544 C   0  0  0  0  0  0  0  0  0  0  0  0
    0.4588   -0.3575    1.7880 C   0  0  0  0  0  0  0  0  0  0  0  0
    1.8364   -0.1475    1.8389 C   0  0  0  0  0  0  0  0  0  0  0  0
    2.3240    0.7491    2.7145 F   0  0  0  0  0  0  0  0  0  0  0  0
  1  2  2  0
  2  3  1  0
  3  4  1  0
  4  5  2  0
  5  6  1  0
  6  7  2  0
  7  8  1  0
  8  9  2  0
  8 10  1  0
  7 11  1  0
 11 12  2  0
  2 13  1  0
 13 14  1  0
 14 15  2  0
 15 16  1  0
 16 17  2  0
 17 18  1  0
 18 19  1  0
 19 20  2  0
 21 19  1  6
 21 22  1  0
 22 23  1  0
 23 24  1  0
 24 25  2  0
 25 26  1  0
 26 27  1  0
 27 28  1  0
 28 29  2  0
 29 30  1  0
 30 31  1  0
 31 32  1  0
 32 33  2  0
 17 34  1  0
 34 35  2  0
 35 36  1  0
 12  4  1  0
 35 14  1  0
 25 21  1  0
 33 28  1  0
 29 24  1  0
M  END
>  <energy>  (243) 
109.90

>  <full_id>  (243) 
MOL00010061-000271-03_1

>  <mol_id>  (243) 
MOL00010061-000271-03

>  <act_mol>  (243) 
0

>  <act_conf>  (243) 
0

$$$$
MOL00010590-000001-04
     RDKit          3D

 32 34  0  0  0  0  0  0  0  0999 V2000
    6.8646   -1.6799    5.7393 C   0  0  0  0  0  0  0  0  0  0  0  0
    6.7628   -1.9053    4.3329 O   0  0  0  0  0  0  0  0  0  0  0  0
    5.5033   -1.7264    3.8299 C   0  0  0  0  0  0  0  0  0  0  0  0
    4.5320   -1.4008    4.4969 O   0  0  0  0  0  0  0  0  0  0  0  0
    5.5293   -1.9881    2.3389 C   0  0  0  0  0  0  0  0  0  0  0  0
    4.1865   -1.8645    1.6608 C   0  0  0  0  0  0  0  0  0  0  0  0
    3.7373   -0.6279    1.1852 C   0  0  0  0  0  0  0  0  0  0  0  0
    2.4898   -0.5134    0.5580 C   0  0  0  0  0  0  0  0  0  0  0  0
    1.6602   -1.6269    0.3879 C   0  0  0  0  0  0  0  0  0  0  0  0
    0.3953   -1.5779   -0.2192 N   0  0  0  0  0  0  0  0  0  0  0  0
   -0.2866   -0.5170   -0.7613 C   0  0  0  0  0  0  0  0  0  0  0  0
   -1.4922   -0.5273   -1.3668 C   0  0  0  0  0  0  0  0  0  0  0  0
   -2.2531   -1.8262   -1.5108 C   0  0  0  0  0  0  0  0  0  0  0  0
   -1.7424   -2.8923   -1.1805 O   0  0  0  0  0  0  0  0  0  0  0  0
   -3.5322   -1.6825   -2.0125 N   0  0  0  0  0  0  0  0  0  0  0  0
   -4.4038   -2.7171   -2.2643 C   0  0  0  0  0  0  0  0  0  0  0  0
   -4.2263   -3.9174   -2.1350 O   0  0  0  0  0  0  0  0  0  0  0  0
   -2.0077    0.7584   -1.8789 C   0  0  0  0  0  0  0  0  0  0  0  0
   -2.7037    1.6009   -0.9916 C   0  0  0  0  0  0  0  0  0  0  0  0
   -3.2331    2.8257   -1.4211 C   0  0  0  0  0  0  0  0  0  0  0  0
   -3.9572    3.6788   -0.4838 C   0  0  0  0  0  0  0  0  0  0  0  0
   -3.6255    3.9362    0.8863 C   0  0  0  0  0  0  0  0  0  0  0  0
   -4.5250    4.7796    1.5005 C   0  0  0  0  0  0  0  0  0  0  0  0
   -5.7768    5.2603    0.4432 S   0  0  0  0  0  0  0  0  0  0  0  0
   -5.1177    4.3407   -0.8408 C   0  0  0  0  0  0  0  0  0  0  0  0
   -3.0486    3.2095   -2.7509 C   0  0  0  0  0  0  0  0  0  0  0  0
   -2.3531    2.3800   -3.6267 C   0  0  0  0  0  0  0  0  0  0  0  0
   -2.2003    2.7843   -4.8956 F   0  0  0  0  0  0  0  0  0  0  0  0
   -1.8228    1.1518   -3.2180 C   0  0  0  0  0  0  0  0  0  0  0  0
   -1.0789    0.2953   -4.2057 C   0  0  0  0  0  0  0  0  0  0  0  0
    2.1135   -2.8583    0.8837 C   0  0  0  0  0  0  0  0  0  0  0  0
    3.3571   -2.9796    1.5137 C   0  0  0  0  0  0  0  0  0  0  0  0
  1  2  1  0
  2  3  1  0
  3  4  2  0
  3  5  1  0
  5  6  1  0
  6  7  2  0
  7  8  1  0
  8  9  2  0
  9 10  1  0
 10 11  1  0
 11 12  2  0
 12 13  1  0
 13 14  2  0
 13 15  1  0
 15 16  1  0
 16 17  2  0
 12 18  1  0
 18 19  2  0
 19 20  1  0
 20 21  1  0
 21 22  1  0
 22 23  2  0
 23 24  1  0
 24 25  1  0
 20 26  2  0
 26 27  1  0
 27 28  1  0
 27 29  2  0
 29 30  1  0
  9 31  1  0
 31 32  2  0
 32  6  1  0
 29 18  1  0
 25 21  2  0
M  END
>  <energy>  (244) 
29.48

>  <full_id>  (244) 
MOL00010590-000001-04_1

>  <mol_id>  (244) 
MOL00010590-000001-04

>  <act_mol>  (244) 
0

>  <act_conf>  (244) 
0

$$$$
MOL00010706-000652-03
     RDKit          3D

 26 28  0  0  0  0  0  0  0  0999 V2000
    0.7390   -3.3202   -0.2570 N   0  0  0  0  0  0  0  0  0  0  0  0
    1.2577   -2.2828   -0.2967 C   0  0  0  0  0  0  0  0  0  0  0  0
    1.8763   -0.9888   -0.3391 C   0  0  0  0  0  0  0  0  0  0  0  0
    3.1356   -0.8825   -0.9583 C   0  0  0  0  0  0  0  0  0  0  0  0
    3.7901    0.3492   -1.0441 C   0  0  0  0  0  0  0  0  0  0  0  0
    5.0437    0.3729   -1.6802 N   0  0  0  0  0  0  0  0  0  0  0  0
    5.8886    1.4564   -1.8636 C   0  0  0  0  0  0  0  0  0  0  0  0
    5.7007    2.6129   -1.5042 O   0  0  0  0  0  0  0  0  0  0  0  0
    7.1516    1.0517   -2.6290 C   0  0  0  0  0  0  0  0  0  0  0  0
    7.4838   -0.3198   -2.4260 O   0  0  0  0  0  0  0  0  0  0  0  0
    3.1679    1.4727   -0.5058 C   0  0  0  0  0  0  0  0  0  0  0  0
    1.9105    1.3729    0.1115 C   0  0  0  0  0  0  0  0  0  0  0  0
    1.2465    0.1466    0.2069 C   0  0  0  0  0  0  0  0  0  0  0  0
   -0.0224    0.0169    0.8162 N   0  0  0  0  0  0  0  0  0  0  0  0
   -0.8051    0.9954    1.4091 C   0  0  0  0  0  0  0  0  0  0  0  0
   -0.5276    2.1863    1.5216 O   0  0  0  0  0  0  0  0  0  0  0  0
   -2.1743    0.4579    1.8600 C   0  0  2  0  0  0  0  0  0  0  0  0
   -2.0388   -0.9629    2.2642 N   0  0  0  0  0  0  0  0  0  0  0  0
   -3.2478   -1.5998    1.8047 N   0  0  0  0  0  0  0  0  0  0  0  0
   -3.5098   -1.0130    0.4800 C   0  0  1  0  0  0  0  0  0  0  0  0
   -4.8510   -1.4469   -0.0304 C   0  0  0  0  0  0  0  0  0  0  0  0
   -5.8372   -0.7282   -0.5860 C   0  0  0  0  0  0  0  0  0  0  0  0
   -5.8607    0.6879   -0.8535 C   0  0  0  0  0  0  0  0  0  0  0  0
   -5.2591    1.6310   -0.1190 C   0  0  0  0  0  0  0  0  0  0  0  0
   -4.3669    1.3710    1.0562 C   0  0  0  0  0  0  0  0  0  0  0  0
   -3.1782    0.4710    0.6942 C   0  0  1  0  0  0  0  0  0  0  0  0
  1  2  3  0
  2  3  1  0
  3  4  2  0
  4  5  1  0
  5  6  1  0
  6  7  1  0
  7  8  2  0
  7  9  1  0
  9 10  1  0
  5 11  2  0
 11 12  1  0
 12 13  2  0
 13 14  1  0
 14 15  1  0
 15 16  2  0
 17 15  1  6
 17 18  1  0
 18 19  1  0
 20 19  1  0
 20 21  1  1
 21 22  2  0
 22 23  1  0
 23 24  2  0
 24 25  1  0
 26 25  1  1
 13  3  1  0
 26 17  1  0
 26 20  1  0
M  END
>  <energy>  (245) 
99.92

>  <full_id>  (245) 
MOL00010706-000652-03_1

>  <mol_id>  (245) 
MOL00010706-000652-03

>  <act_mol>  (245) 
0

>  <act_conf>  (245) 
0

$$$$
MOL00010581-001165-03
     RDKit          3D

 33 34  0  0  0  0  0  0  0  0999 V2000
    0.1800   -3.4309    1.0222 C   0  0  0  0  0  0  0  0  0  0  0  0
   -1.1904   -3.2212    0.3664 C   0  0  0  0  0  0  0  0  0  0  0  0
   -2.3102   -3.6090    1.3419 C   0  0  0  0  0  0  0  0  0  0  0  0
   -1.2733   -4.1364   -0.8700 C   0  0  0  0  0  0  0  0  0  0  0  0
   -1.4009   -1.7535   -0.0728 C   0  0  0  0  0  0  0  0  0  0  0  0
   -1.8668   -1.4898   -1.1869 O   0  0  0  0  0  0  0  0  0  0  0  0
   -1.0611   -0.6349    0.9135 C   0  0  1  0  0  0  0  0  0  0  0  0
    0.4104   -0.2198    0.9062 C   0  0  0  0  0  0  0  0  0  0  0  0
    1.0380   -0.1676    1.9636 O   0  0  0  0  0  0  0  0  0  0  0  0
    0.9281    0.0840   -0.3352 N   0  0  0  0  0  0  0  0  0  0  0  0
    2.2665    0.3915   -0.6686 C   0  0  0  0  0  0  0  0  0  0  0  0
    3.3418    0.1855    0.1975 C   0  0  0  0  0  0  0  0  0  0  0  0
    4.6495    0.5060   -0.2043 C   0  0  0  0  0  0  0  0  0  0  0  0
    5.7533    0.3003    0.7546 C   0  0  0  0  0  0  0  0  0  0  0  0
    6.6897    1.0429    0.9703 O   0  0  0  0  0  0  0  0  0  0  0  0
    5.6175   -0.8707    1.4036 O   0  0  0  0  0  0  0  0  0  0  0  0
    4.8788    1.0258   -1.4818 C   0  0  0  0  0  0  0  0  0  0  0  0
    6.4573    1.3882   -2.0837 Cl  0  0  0  0  0  0  0  0  0  0  0  0
    3.8050    1.2275   -2.3559 C   0  0  0  0  0  0  0  0  0  0  0  0
    2.5031    0.9213   -1.9531 C   0  0  0  0  0  0  0  0  0  0  0  0
    1.3945    1.0741   -2.7519 O   0  0  0  0  0  0  0  0  0  0  0  0
    1.4845    2.0570   -3.7909 C   0  0  0  0  0  0  0  0  0  0  0  0
    0.0770    2.3316   -4.3163 C   0  0  0  0  0  0  0  0  0  0  0  0
   -0.6995    3.0218   -3.3401 O   0  0  0  0  0  0  0  0  0  0  0  0
   -1.9826    0.4867    0.7676 N   0  0  0  0  0  0  0  0  0  0  0  0
   -2.0023    1.3728   -0.2623 C   0  0  0  0  0  0  0  0  0  0  0  0
   -1.2063    1.4613   -1.1832 O   0  0  0  0  0  0  0  0  0  0  0  0
   -3.0968    2.1898   -0.1277 N   0  0  0  0  0  0  0  0  0  0  0  0
   -3.9585    1.7783    0.9547 C   0  0  0  0  0  0  0  0  0  0  0  0
   -5.3118    1.3094    0.4378 C   0  0  0  0  0  0  0  0  0  0  0  0
   -4.0769    2.8655    2.0123 C   0  0  0  0  0  0  0  0  0  0  0  0
   -3.1440    0.5870    1.4840 C   0  0  0  0  0  0  0  0  0  0  0  0
   -3.4956   -0.1671    2.3821 O   0  0  0  0  0  0  0  0  0  0  0  0
  2  1  1  0
  2  3  1  0
  2  4  1  0
  2  5  1  0
  5  6  2  0
  7  5  1  6
  7  8  1  0
  8  9  2  0
  8 10  1  0
 10 11  1  0
 11 12  2  0
 12 13  1  0
 13 14  1  0
 14 15  2  0
 14 16  1  0
 13 17  2  0
 17 18  1  0
 17 19  1  0
 19 20  2  0
 20 21  1  0
 21 22  1  0
 22 23  1  0
 23 24  1  0
  7 25  1  0
 25 26  1  0
 26 27  2  0
 26 28  1  0
 28 29  1  0
 29 30  1  0
 29 31  1  0
 29 32  1  0
 32 33  2  0
 20 11  1  0
 32 25  1  0
M  END
>  <energy>  (246) 
-25.94

>  <full_id>  (246) 
MOL00010581-001165-03_1

>  <mol_id>  (246) 
MOL00010581-001165-03

>  <act_mol>  (246) 
0

>  <act_conf>  (246) 
0

$$$$
MOL00010830-000532-02
     RDKit          3D

 26 27  0  0  0  0  0  0  0  0999 V2000
    6.1677   -3.5772   -0.6404 C   0  0  0  0  0  0  0  0  0  0  0  0
    6.5877   -2.1742   -0.9951 C   0  0  0  0  0  0  0  0  0  0  0  0
    7.1441   -1.9229   -2.0660 O   0  0  0  0  0  0  0  0  0  0  0  0
    6.2668   -1.0812    0.0036 C   0  0  0  0  0  0  0  0  0  0  0  0
    4.7999   -0.7346    0.0289 C   0  0  0  0  0  0  0  0  0  0  0  0
    3.9927   -1.1193    1.1076 C   0  0  0  0  0  0  0  0  0  0  0  0
    2.6295   -0.8171    1.1111 C   0  0  0  0  0  0  0  0  0  0  0  0
    2.0606   -0.1145    0.0426 C   0  0  0  0  0  0  0  0  0  0  0  0
    0.6020    0.1833    0.0851 C   0  0  0  0  0  0  0  0  0  0  0  0
   -0.1419   -0.6394    0.6065 O   0  0  0  0  0  0  0  0  0  0  0  0
    0.2488    1.3950   -0.4567 N   0  0  0  0  0  0  0  0  0  0  0  0
   -1.0299    1.8633   -0.5296 C   0  0  0  0  0  0  0  0  0  0  0  0
   -2.1215    1.1548   -0.1397 N   0  0  0  0  0  0  0  0  0  0  0  0
   -3.1408    1.9582   -0.3750 C   0  0  0  0  0  0  0  0  0  0  0  0
   -4.5291    1.7419   -0.1661 C   0  0  0  0  0  0  0  0  0  0  0  0
   -5.0056    0.6169    0.4101 C   0  0  0  0  0  0  0  0  0  0  0  0
   -6.4889    0.4295    0.5944 C   0  0  0  0  0  0  0  0  0  0  0  0
   -4.1458   -0.3871    0.8289 N   0  0  0  0  0  0  0  0  0  0  0  0
   -4.4603   -1.5791    1.4517 C   0  0  0  0  0  0  0  0  0  0  0  0
   -3.2516   -2.4510    1.6864 C   0  0  0  0  0  0  0  0  0  0  0  0
   -5.5852   -1.9530    1.7702 O   0  0  0  0  0  0  0  0  0  0  0  0
   -2.6422    3.1296   -0.8896 N   0  0  0  0  0  0  0  0  0  0  0  0
   -3.3489    4.3239   -1.2753 C   0  0  0  0  0  0  0  0  0  0  0  0
   -1.2981    3.0789   -1.0089 N   0  0  0  0  0  0  0  0  0  0  0  0
    2.8583    0.2590   -1.0457 C   0  0  0  0  0  0  0  0  0  0  0  0
    4.2207   -0.0490   -1.0493 C   0  0  0  0  0  0  0  0  0  0  0  0
  1  2  1  0
  2  3  2  0
  2  4  1  0
  4  5  1  0
  5  6  2  0
  6  7  1  0
  7  8  2  0
  8  9  1  0
  9 10  2  0
  9 11  1  0
 11 12  1  0
 12 13  1  0
 13 14  2  0
 14 15  1  0
 15 16  2  0
 16 17  1  0
 16 18  1  0
 18 19  1  0
 19 20  1  0
 19 21  2  0
 14 22  1  0
 22 23  1  0
 22 24  1  0
  8 25  1  0
 25 26  2  0
 26  5  1  0
 24 12  2  0
M  END
>  <energy>  (247) 
-13.70

>  <full_id>  (247) 
MOL00010830-000532-02_1

>  <mol_id>  (247) 
MOL00010830-000532-02

>  <act_mol>  (247) 
0

>  <act_conf>  (247) 
0

$$$$
MOL00010889-002692-03
     RDKit          3D

 23 25  0  0  0  0  0  0  0  0999 V2000
    4.5288   -2.2308   -0.2702 C   0  0  0  0  0  0  0  0  0  0  0  0
    4.6614   -0.7637   -0.5860 C   0  0  0  0  0  0  0  0  0  0  0  0
    5.1239   -0.3812   -1.8559 C   0  0  0  0  0  0  0  0  0  0  0  0
    5.2681    0.9658   -2.1906 C   0  0  0  0  0  0  0  0  0  0  0  0
    4.9591    1.9507   -1.2585 C   0  0  0  0  0  0  0  0  0  0  0  0
    4.5055    1.5893    0.0092 C   0  0  0  0  0  0  0  0  0  0  0  0
    4.3543    0.2354    0.3630 C   0  0  0  0  0  0  0  0  0  0  0  0
    3.8089   -0.0962    1.7388 C   0  0  0  0  0  0  0  0  0  0  0  0
    2.3033   -0.3392    1.8408 C   0  0  0  0  0  0  0  0  0  0  0  0
    1.8323   -0.7386    2.9068 O   0  0  0  0  0  0  0  0  0  0  0  0
    1.5615   -0.0617    0.7093 N   0  0  0  0  0  0  0  0  0  0  0  0
    0.1638   -0.1769    0.5583 C   0  0  0  0  0  0  0  0  0  0  0  0
   -0.3780    0.1335   -0.6899 C   0  0  0  0  0  0  0  0  0  0  0  0
   -1.7549    0.0428   -0.8975 C   0  0  0  0  0  0  0  0  0  0  0  0
   -2.5748   -0.3653    0.1521 C   0  0  0  0  0  0  0  0  0  0  0  0
   -4.0814   -0.4532   -0.0080 C   0  0  1  0  0  0  0  0  0  0  0  0
   -4.7420    0.8821    0.4142 C   0  0  0  0  0  0  0  0  0  0  0  0
   -6.2145    0.8866    0.2434 N   0  0  0  0  0  0  0  0  0  0  0  0
   -6.5285    0.4653   -1.1342 C   0  0  0  0  0  0  0  0  0  0  0  0
   -5.8617   -0.8672   -1.5055 C   0  0  0  0  0  0  0  0  0  0  0  0
   -4.4375   -0.7894   -1.3668 O   0  0  0  0  0  0  0  0  0  0  0  0
   -2.0725   -0.6643    1.3773 N   0  0  0  0  0  0  0  0  0  0  0  0
   -0.7269   -0.5703    1.5517 C   0  0  0  0  0  0  0  0  0  0  0  0
  1  2  1  0
  2  3  2  0
  3  4  1  0
  4  5  2  0
  5  6  1  0
  6  7  2  0
  7  8  1  0
  8  9  1  0
  9 10  2  0
  9 11  1  0
 11 12  1  0
 12 13  2  0
 13 14  1  0
 14 15  2  0
 16 15  1  6
 16 17  1  0
 17 18  1  0
 18 19  1  0
 19 20  1  0
 20 21  1  0
 15 22  1  0
 22 23  2  0
  7  2  1  0
 23 12  1  0
 21 16  1  0
M  END
>  <energy>  (248) 
139.53

>  <full_id>  (248) 
MOL00010889-002692-03_1

>  <mol_id>  (248) 
MOL00010889-002692-03

>  <act_mol>  (248) 
0

>  <act_conf>  (248) 
0

$$$$
MOL00011167-000651-02
     RDKit          3D

 19 21  0  0  0  0  0  0  0  0999 V2000
    1.3491   -1.1632   -1.5064 C   0  0  0  0  0  0  0  0  0  0  0  0
    1.7531   -0.7182   -0.1288 C   0  0  0  0  0  0  0  0  0  0  0  0
    0.9099   -0.4739    0.8988 C   0  0  0  0  0  0  0  0  0  0  0  0
   -0.5725   -0.5579    0.8399 C   0  0  0  0  0  0  0  0  0  0  0  0
   -1.1522   -1.2353    1.6777 O   0  0  0  0  0  0  0  0  0  0  0  0
   -1.1167    0.2222   -0.1420 N   0  0  0  0  0  0  0  0  0  0  0  0
   -2.4670    0.3457   -0.4280 C   0  0  0  0  0  0  0  0  0  0  0  0
   -3.3951   -0.3394    0.2443 N   0  0  0  0  0  0  0  0  0  0  0  0
   -4.6762   -0.1470   -0.1179 C   0  0  0  0  0  0  0  0  0  0  0  0
   -5.0565    0.7016   -1.1274 C   0  0  0  0  0  0  0  0  0  0  0  0
   -4.0285    1.3566   -1.7595 C   0  0  0  0  0  0  0  0  0  0  0  0
   -2.7310    1.1970   -1.4323 N   0  0  0  0  0  0  0  0  0  0  0  0
    1.5598   -0.1632    2.2109 C   0  0  0  0  0  0  0  0  0  0  0  0
    2.8310   -0.0330    2.4377 N   0  0  0  0  0  0  0  0  0  0  0  0
    3.6446   -0.2331    1.3623 C   0  0  0  0  0  0  0  0  0  0  0  0
    4.9546   -0.1561    1.2869 N   0  0  0  0  0  0  0  0  0  0  0  0
    5.2179   -0.4699   -0.0080 C   0  0  0  0  0  0  0  0  0  0  0  0
    4.1583   -0.7346   -0.7704 N   0  0  0  0  0  0  0  0  0  0  0  0
    3.1314   -0.5835    0.1037 N   0  0  0  0  0  0  0  0  0  0  0  0
  1  2  1  0
  2  3  2  0
  3  4  1  0
  4  5  2  0
  4  6  1  0
  6  7  1  0
  7  8  2  0
  8  9  1  0
  9 10  2  0
 10 11  1  0
 11 12  2  0
  3 13  1  0
 13 14  2  0
 14 15  1  0
 15 16  2  0
 16 17  1  0
 17 18  2  0
 18 19  1  0
 19  2  1  0
 12  7  1  0
 19 15  1  0
M  END
>  <energy>  (249) 
-56.05

>  <full_id>  (249) 
MOL00011167-000651-02_1

>  <mol_id>  (249) 
MOL00011167-000651-02

>  <act_mol>  (249) 
0

>  <act_conf>  (249) 
0

$$$$
MOL00010829-000077-02
     RDKit          3D

 33 35  0  0  0  0  0  0  0  0999 V2000
    9.0051   -1.5368    1.0435 C   0  0  0  0  0  0  0  0  0  0  0  0
    7.5295   -1.3327    1.1954 C   0  0  0  0  0  0  0  0  0  0  0  0
    6.6849   -2.1963    1.0033 O   0  0  0  0  0  0  0  0  0  0  0  0
    7.2705   -0.0614    1.6071 O   0  0  0  0  0  0  0  0  0  0  0  0
    5.8798    0.2488    1.6626 C   0  0  0  0  0  0  0  0  0  0  0  0
    5.2482    0.4456    0.2792 C   0  0  0  0  0  0  0  0  0  0  0  0
    5.9312    0.6981   -0.7111 O   0  0  0  0  0  0  0  0  0  0  0  0
    3.8733    0.3363    0.3116 N   0  0  0  0  0  0  0  0  0  0  0  0
    3.0398    0.4849   -0.7630 C   0  0  0  0  0  0  0  0  0  0  0  0
    3.3170    0.7827   -2.0671 C   0  0  0  0  0  0  0  0  0  0  0  0
    2.0965    0.8188   -2.6994 N   0  0  0  0  0  0  0  0  0  0  0  0
    1.9565    1.2071   -4.0802 C   0  0  0  0  0  0  0  0  0  0  0  0
    1.1365    0.5071   -1.7609 C   0  0  0  0  0  0  0  0  0  0  0  0
   -0.2221    0.3764   -1.8821 N   0  0  0  0  0  0  0  0  0  0  0  0
   -1.0004    0.3476   -3.0082 C   0  0  0  0  0  0  0  0  0  0  0  0
   -0.6372    0.4528   -4.1715 O   0  0  0  0  0  0  0  0  0  0  0  0
   -2.4142    0.1468   -2.6641 C   0  0  0  0  0  0  0  0  0  0  0  0
   -3.4755    0.0669   -3.5411 C   0  0  0  0  0  0  0  0  0  0  0  0
   -4.5830   -0.1251   -2.7642 N   0  0  0  0  0  0  0  0  0  0  0  0
   -5.9340   -0.2690   -3.2530 C   0  0  0  0  0  0  0  0  0  0  0  0
   -4.1853   -0.1574   -1.4467 C   0  0  0  0  0  0  0  0  0  0  0  0
   -5.0501   -0.3409   -0.2811 C   0  0  0  0  0  0  0  0  0  0  0  0
   -6.2631   -0.4852   -0.3835 O   0  0  0  0  0  0  0  0  0  0  0  0
   -4.3243   -0.3263    0.8844 N   0  0  0  0  0  0  0  0  0  0  0  0
   -4.8113   -0.4721    2.1834 C   0  0  0  0  0  0  0  0  0  0  0  0
   -6.1243   -0.6489    2.4208 N   0  0  0  0  0  0  0  0  0  0  0  0
   -6.5137   -0.7829    3.7070 C   0  0  0  0  0  0  0  0  0  0  0  0
   -5.6445   -0.7483    4.7858 C   0  0  0  0  0  0  0  0  0  0  0  0
   -4.2890   -0.5651    4.5351 C   0  0  0  0  0  0  0  0  0  0  0  0
   -3.8679   -0.4253    3.2173 C   0  0  0  0  0  0  0  0  0  0  0  0
   -2.5423   -0.2429    2.9204 O   0  0  0  0  0  0  0  0  0  0  0  0
   -2.8688    0.0049   -1.3596 N   0  0  0  0  0  0  0  0  0  0  0  0
    1.6987    0.3353   -0.5779 N   0  0  0  0  0  0  0  0  0  0  0  0
  1  2  1  0
  2  3  2  0
  2  4  1  0
  4  5  1  0
  5  6  1  0
  6  7  2  0
  6  8  1  0
  8  9  1  0
  9 10  2  0
 10 11  1  0
 11 12  1  0
 11 13  1  0
 13 14  1  0
 14 15  1  0
 15 16  2  0
 15 17  1  0
 17 18  2  0
 18 19  1  0
 19 20  1  0
 19 21  1  0
 21 22  1  0
 22 23  2  0
 22 24  1  0
 24 25  1  0
 25 26  2  0
 26 27  1  0
 27 28  2  0
 28 29  1  0
 29 30  2  0
 30 31  1  0
 21 32  2  0
 13 33  2  0
 33  9  1  0
 32 17  1  0
 30 25  1  0
M  END
>  <energy>  (250) 
-39.15

>  <full_id>  (250) 
MOL00010829-000077-02_1

>  <mol_id>  (250) 
MOL00010829-000077-02

>  <act_mol>  (250) 
0

>  <act_conf>  (250) 
0

$$$$
MOL00011134-000197-04
     RDKit          3D

 30 32  0  0  0  0  0  0  0  0999 V2000
   -2.6581    1.0631    4.2788 C   0  0  0  0  0  0  0  0  0  0  0  0
   -2.3409    1.1057    2.8147 C   0  0  0  0  0  0  0  0  0  0  0  0
   -1.5994    1.9291    2.2922 O   0  0  0  0  0  0  0  0  0  0  0  0
   -3.0389    0.1152    2.1663 O   0  0  0  0  0  0  0  0  0  0  0  0
   -2.6668   -0.0285    0.8169 C   0  0  0  0  0  0  0  0  0  0  0  0
   -1.5151   -0.6148    0.4135 C   0  0  0  0  0  0  0  0  0  0  0  0
   -0.5736   -1.1779    1.4352 C   0  0  0  0  0  0  0  0  0  0  0  0
   -0.9750   -1.5276    2.5462 O   0  0  0  0  0  0  0  0  0  0  0  0
    0.7469   -1.2529    1.0379 N   0  0  0  0  0  0  0  0  0  0  0  0
    1.6983   -1.7273    1.8996 N   0  0  0  0  0  0  0  0  0  0  0  0
    2.9382   -1.7217    1.5019 C   0  0  0  0  0  0  0  0  0  0  0  0
    3.4683   -1.2327    0.2418 C   0  0  0  0  0  0  0  0  0  0  0  0
    2.7386   -0.5320   -0.6150 N   0  0  0  0  0  0  0  0  0  0  0  0
    3.5622   -0.2119   -1.6605 C   0  0  0  0  0  0  0  0  0  0  0  0
    4.8170   -0.7126   -1.4365 C   0  0  0  0  0  0  0  0  0  0  0  0
    5.9717   -0.5717   -2.2543 N   0  0  0  0  0  4  0  0  0  0  0  0
    5.7875   -0.1515   -3.4014 O   0  0  0  0  0  0  0  0  0  0  0  0
    7.0645   -0.8638   -1.7570 O   0  0  0  0  0  1  0  0  0  0  0  0
    4.7554   -1.3962   -0.2471 N   0  0  0  0  0  0  0  0  0  0  0  0
    5.7984   -2.1881    0.3652 C   0  0  0  0  0  0  0  0  0  0  0  0
   -1.2237   -0.6995   -1.0471 C   0  0  0  0  0  0  0  0  0  0  0  0
   -0.1927   -1.2072   -1.4801 O   0  0  0  0  0  0  0  0  0  0  0  0
   -2.1516   -0.1951   -1.9149 N   0  0  0  0  0  0  0  0  0  0  0  0
   -3.3606    0.3802   -1.5150 C   0  0  0  0  0  0  0  0  0  0  0  0
   -4.2592    0.8500   -2.4737 C   0  0  0  0  0  0  0  0  0  0  0  0
   -3.9579    0.7532   -3.7773 F   0  0  0  0  0  0  0  0  0  0  0  0
   -5.4700    1.4157   -2.0954 C   0  0  0  0  0  0  0  0  0  0  0  0
   -5.7853    1.5111   -0.7414 C   0  0  0  0  0  0  0  0  0  0  0  0
   -4.8856    1.0422    0.2238 C   0  0  0  0  0  0  0  0  0  0  0  0
   -3.6591    0.4728   -0.1538 C   0  0  0  0  0  0  0  0  0  0  0  0
  1  2  1  0
  2  3  2  0
  2  4  1  0
  4  5  1  0
  5  6  2  0
  6  7  1  0
  7  8  2  0
  7  9  1  0
  9 10  1  0
 10 11  2  0
 11 12  1  0
 12 13  2  0
 13 14  1  0
 14 15  2  0
 15 16  1  0
 16 17  2  0
 16 18  1  0
 15 19  1  0
 19 20  1  0
  6 21  1  0
 21 22  2  0
 21 23  1  0
 23 24  1  0
 24 25  2  0
 25 26  1  0
 25 27  1  0
 27 28  2  0
 28 29  1  0
 29 30  2  0
 30  5  1  0
 19 12  1  0
 30 24  1  0
M  CHG  2  16   1  18  -1
M  END
>  <energy>  (251) 
65.15

>  <full_id>  (251) 
MOL00011134-000197-04_1

>  <mol_id>  (251) 
MOL00011134-000197-04

>  <act_mol>  (251) 
0

>  <act_conf>  (251) 
0

$$$$
MOL00011219-000747-04
     RDKit          3D

 21 22  0  0  0  0  0  0  0  0999 V2000
    2.8759    3.8713   -0.2371 C   0  0  0  0  0  0  0  0  0  0  0  0
    2.4125    2.5274   -0.0971 O   0  0  0  0  0  0  0  0  0  0  0  0
    2.7716    1.9385    1.0701 C   0  0  0  0  0  0  0  0  0  0  0  0
    3.4180    2.4596    1.9650 O   0  0  0  0  0  0  0  0  0  0  0  0
    2.2603    0.5417    1.1322 C   0  0  0  0  0  0  0  0  0  0  0  0
    2.5398   -0.2137    2.2817 C   0  0  0  0  0  0  0  0  0  0  0  0
    2.0847   -1.5296    2.3961 C   0  0  0  0  0  0  0  0  0  0  0  0
    1.3386   -2.0994    1.3663 C   0  0  0  0  0  0  0  0  0  0  0  0
    1.0464   -1.3426    0.2266 C   0  0  0  0  0  0  0  0  0  0  0  0
    0.0927   -2.0832   -1.0829 S   0  0  0  0  0  6  0  0  0  0  0  0
    0.1331   -1.1960   -2.2255 O   0  0  0  0  0  0  0  0  0  0  0  0
    0.5369   -3.4576   -1.1938 O   0  0  0  0  0  0  0  0  0  0  0  0
   -1.4697   -2.1322   -0.4672 N   0  0  0  0  0  0  0  0  0  0  0  0
   -1.9944   -1.0780    0.2566 C   0  0  0  0  0  0  0  0  0  0  0  0
   -2.4241   -1.3277    1.4911 N   0  0  0  0  0  0  0  0  0  0  0  0
   -2.8465   -0.1346    1.9331 N   0  0  0  0  0  0  0  0  0  0  0  0
   -2.7313    0.8633    1.0066 C   0  0  0  0  0  0  0  0  0  0  0  0
   -3.1604    2.2533    1.2872 C   0  0  0  0  0  0  0  0  0  0  0  0
   -2.2049    0.2689   -0.1284 C   0  0  0  0  0  0  0  0  0  0  0  0
   -1.9644    0.9109   -1.4438 C   0  0  0  0  0  0  0  0  0  0  0  0
    1.5169   -0.0320    0.0936 C   0  0  0  0  0  0  0  0  0  0  0  0
  1  2  1  0
  2  3  1  0
  3  4  2  0
  3  5  1  0
  5  6  2  0
  6  7  1  0
  7  8  2  0
  8  9  1  0
  9 10  1  0
 10 11  2  0
 10 12  2  0
 10 13  1  0
 13 14  1  0
 14 15  2  0
 15 16  1  0
 16 17  1  0
 17 18  1  0
 17 19  2  0
 19 20  1  0
  9 21  2  0
 21  5  1  0
 19 14  1  0
M  END
>  <energy>  (252) 
-60.43

>  <full_id>  (252) 
MOL00011219-000747-04_1

>  <mol_id>  (252) 
MOL00011219-000747-04

>  <act_mol>  (252) 
0

>  <act_conf>  (252) 
0

$$$$
MOL00010855-000277-03
     RDKit          3D

 26 29  0  0  0  0  0  0  0  0999 V2000
    8.6169    2.9059   -0.6183 N   0  0  0  0  0  0  0  0  0  0  0  0
    8.3432    1.5708   -0.5524 C   0  0  0  0  0  0  0  0  0  0  0  0
    9.2460    0.7450   -0.5150 O   0  0  0  0  0  0  0  0  0  0  0  0
    6.8689    1.2423   -0.5381 C   0  0  0  0  0  0  0  0  0  0  0  0
    6.6304   -0.2622   -0.4474 C   0  0  0  0  0  0  0  0  0  0  0  0
    5.1566   -0.5857   -0.4331 C   0  0  0  0  0  0  0  0  0  0  0  0
    4.4505   -0.6243    0.7752 C   0  0  0  0  0  0  0  0  0  0  0  0
    3.0825   -0.9037    0.7862 C   0  0  0  0  0  0  0  0  0  0  0  0
    2.3951   -1.1527   -0.4099 C   0  0  0  0  0  0  0  0  0  0  0  0
    0.9127   -1.4452   -0.3900 C   0  0  0  0  0  0  0  0  0  0  0  0
    0.1856   -0.2126   -0.1198 N   0  0  0  0  0  0  0  0  0  0  0  0
   -1.2087   -0.1991   -0.2071 C   0  0  0  0  0  0  0  0  0  0  0  0
   -1.8611    1.0373   -0.2934 C   0  0  0  0  0  0  0  0  0  0  0  0
   -3.2579    1.1290   -0.3153 C   0  0  0  0  0  0  0  0  0  0  0  0
   -4.0518   -0.0196   -0.2108 C   0  0  0  0  0  0  0  0  0  0  0  0
   -5.5605    0.0864   -0.2458 C   0  0  1  0  0  0  0  0  0  0  0  0
   -6.2260   -1.1632    0.1182 O   0  0  0  0  0  0  0  0  0  0  0  0
   -7.1475   -0.7889    1.1789 C   0  0  1  0  0  0  0  0  0  0  0  0
   -6.3203   -0.4828    2.4365 C   0  0  0  0  0  0  0  0  0  0  0  0
   -5.7844    0.8771    2.1560 N   0  0  0  0  0  0  0  0  0  0  0  0
   -6.1992    1.1114    0.7391 C   0  0  2  0  0  0  0  0  0  0  0  0
   -7.6205    0.5878    0.7670 C   0  0  0  0  0  0  0  0  0  0  0  0
   -3.4049   -1.2555   -0.1001 C   0  0  0  0  0  0  0  0  0  0  0  0
   -2.0061   -1.3393   -0.0781 C   0  0  0  0  0  0  0  0  0  0  0  0
    3.1002   -1.0988   -1.6194 C   0  0  0  0  0  0  0  0  0  0  0  0
    4.4689   -0.8188   -1.6304 C   0  0  0  0  0  0  0  0  0  0  0  0
  1  2  1  0
  2  3  2  0
  2  4  1  0
  4  5  1  0
  5  6  1  0
  6  7  2  0
  7  8  1  0
  8  9  2  0
  9 10  1  0
 10 11  1  0
 11 12  1  0
 12 13  2  0
 13 14  1  0
 14 15  2  0
 16 15  1  1
 16 17  1  0
 17 18  1  0
 18 19  1  1
 19 20  1  0
 21 20  1  1
 21 22  1  0
 15 23  1  0
 23 24  2  0
  9 25  1  0
 25 26  2  0
 26  6  1  0
 24 12  1  0
 21 16  1  0
 22 18  1  0
M  END
>  <energy>  (253) 
84.06

>  <full_id>  (253) 
MOL00010855-000277-03_1

>  <mol_id>  (253) 
MOL00010855-000277-03

>  <act_mol>  (253) 
0

>  <act_conf>  (253) 
0

$$$$
MOL00010806-000261-03
     RDKit          3D

 32 34  0  0  0  0  0  0  0  0999 V2000
    3.7275    2.0915   -3.5125 C   0  0  0  0  0  0  0  0  0  0  0  0
    3.1315    1.4013   -2.3236 C   0  0  0  0  0  0  0  0  0  0  0  0
    3.7668    0.6413   -1.4117 C   0  0  0  0  0  0  0  0  0  0  0  0
    3.1388    0.0244   -0.3438 N   0  0  0  0  0  0  0  0  0  0  0  0
    1.7884   -0.1608   -0.1050 C   0  0  0  0  0  0  0  0  0  0  0  0
    0.8725    0.1694   -0.8585 O   0  0  0  0  0  0  0  0  0  0  0  0
    1.4923   -0.8230    1.2627 C   0  0  1  0  0  0  0  0  0  0  0  0
    0.0518   -1.0004    1.3837 N   0  0  0  0  0  0  0  0  0  0  0  0
   -0.5859   -1.1913    2.5831 C   0  0  0  0  0  0  0  0  0  0  0  0
    0.0059   -1.3451    3.6461 O   0  0  0  0  0  0  0  0  0  0  0  0
   -2.0435   -1.2048    2.4609 C   0  0  0  0  0  0  0  0  0  0  0  0
   -2.9134   -1.3685    3.5194 C   0  0  0  0  0  0  0  0  0  0  0  0
   -4.5271   -1.3540    2.9567 S   0  0  0  0  0  0  0  0  0  0  0  0
   -3.9713   -1.1190    1.3398 C   0  0  0  0  0  0  0  0  0  0  0  0
   -4.7655   -1.0277    0.2468 N   0  0  0  0  0  0  0  0  0  0  0  0
   -6.1394   -0.5471    0.2924 C   0  0  0  0  0  0  0  0  0  0  0  0
   -6.8434   -0.9775   -1.0030 C   0  0  0  0  0  0  0  0  0  0  0  0
   -8.2663   -0.4313   -1.0835 C   0  0  0  0  0  0  0  0  0  0  0  0
   -8.2920    1.0845   -0.9230 C   0  0  0  0  0  0  0  0  0  0  0  0
   -7.5933    1.5254    0.3582 C   0  0  0  0  0  0  0  0  0  0  0  0
   -6.1699    0.9805    0.4410 C   0  0  0  0  0  0  0  0  0  0  0  0
   -2.6657   -1.0565    1.2200 N   0  0  0  0  0  0  0  0  0  0  0  0
    2.2701   -2.1406    1.4741 C   0  0  1  0  0  0  0  0  0  0  0  0
    2.0093   -3.1915    0.3999 C   0  0  0  0  0  0  0  0  0  0  0  0
    3.6808   -1.8696    1.5194 O   0  0  0  0  0  0  0  0  0  0  0  0
    5.1976    0.4870   -1.4793 C   0  0  0  0  0  0  0  0  0  0  0  0
    6.0950    1.4509   -1.5873 N   0  0  0  0  0  0  0  0  0  0  0  0
    7.3878    0.9371   -1.6356 C   0  0  0  0  0  0  0  0  0  0  0  0
    8.5456    1.8794   -1.7731 C   0  0  0  0  0  0  0  0  0  0  0  0
    8.2604    3.1145   -1.0426 N   0  0  0  0  0  0  0  0  0  0  0  0
    7.4585   -0.4378   -1.5568 C   0  0  0  0  0  0  0  0  0  0  0  0
    5.8912   -1.1048   -1.4159 S   0  0  0  0  0  0  0  0  0  0  0  0
  1  2  1  0
  2  3  2  0
  3  4  1  0
  4  5  1  0
  5  6  2  0
  5  7  1  0
  7  8  1  6
  8  9  1  0
  9 10  2  0
  9 11  1  0
 11 12  2  0
 12 13  1  0
 13 14  1  0
 14 15  1  0
 16 15  1  0
 16 17  1  0
 17 18  1  0
 18 19  1  0
 19 20  1  0
 20 21  1  0
 14 22  2  0
  7 23  1  0
 23 24  1  6
 23 25  1  0
  3 26  1  0
 26 27  2  0
 27 28  1  0
 28 29  1  0
 29 30  1  0
 28 31  2  0
 31 32  1  0
 22 11  1  0
 32 26  1  0
 21 16  1  0
M  END
>  <energy>  (254) 
23.13

>  <full_id>  (254) 
MOL00010806-000261-03_1

>  <mol_id>  (254) 
MOL00010806-000261-03

>  <act_mol>  (254) 
0

>  <act_conf>  (254) 
0

$$$$
MOL00011044-000971-03
     RDKit          3D

 30 32  0  0  0  0  0  0  0  0999 V2000
   -7.5293    1.3063    0.6245 C   0  0  0  0  0  0  0  0  0  0  0  0
   -6.0572    1.1828    0.3672 C   0  0  0  0  0  0  0  0  0  0  0  0
   -5.4408   -0.0671    0.3553 C   0  0  0  0  0  0  0  0  0  0  0  0
   -4.0626   -0.1740    0.1454 C   0  0  0  0  0  0  0  0  0  0  0  0
   -3.2571    0.9579   -0.0472 C   0  0  0  0  0  0  0  0  0  0  0  0
   -1.8651    0.8473   -0.2644 N   0  0  0  0  0  0  0  0  0  0  0  0
   -1.0138   -0.1663    0.1460 C   0  0  0  0  0  0  0  0  0  0  0  0
   -1.3565   -1.0083    1.0796 N   0  0  0  0  0  0  0  0  0  0  0  0
   -0.4848   -1.9618    1.5372 N   0  0  0  0  0  0  0  0  0  0  0  0
   -1.0075   -2.8889    2.5522 C   0  0  0  0  0  0  0  0  0  0  0  0
   -1.8660   -3.9708    1.8951 C   0  0  0  0  0  0  0  0  0  0  0  0
   -1.7860   -2.1675    3.6546 C   0  0  0  0  0  0  0  0  0  0  0  0
    0.7906   -2.1542    1.0216 C   0  0  0  0  0  0  0  0  0  0  0  0
    1.5613   -3.0422    1.3803 O   0  0  0  0  0  0  0  0  0  0  0  0
    1.2173   -1.2206   -0.0312 C   0  0  0  0  0  0  0  0  0  0  0  0
    2.5001   -1.3391   -0.5838 C   0  0  0  0  0  0  0  0  0  0  0  0
    2.8829   -0.4746   -1.6032 C   0  0  0  0  0  0  0  0  0  0  0  0
    4.1535   -0.6378   -2.1606 O   0  0  0  0  0  0  0  0  0  0  0  0
    5.0311    0.3958   -1.8769 C   0  0  0  0  0  0  0  0  0  0  0  0
    4.7810    1.4108   -1.2386 O   0  0  0  0  0  0  0  0  0  0  0  0
    6.2544    0.1144   -2.4129 N   0  0  0  0  0  0  0  0  0  0  0  0
    7.3834    1.0278   -2.3636 C   0  0  0  0  0  0  0  0  0  0  0  0
    7.8991    1.2844   -0.9420 C   0  0  0  0  0  0  0  0  0  0  0  0
    7.1474    2.2940   -0.2760 O   0  0  0  0  0  0  0  0  0  0  0  0
    1.9961    0.4695   -2.1150 C   0  0  0  0  0  0  0  0  0  0  0  0
    0.7202    0.5852   -1.5563 C   0  0  0  0  0  0  0  0  0  0  0  0
    0.3340   -0.2482   -0.4918 C   0  0  0  0  0  0  0  0  0  0  0  0
   -3.8754    2.2290   -0.0037 C   0  0  0  0  0  0  0  0  0  0  0  0
   -3.0876    3.5032   -0.1538 C   0  0  0  0  0  0  0  0  0  0  0  0
   -5.2662    2.3252    0.1975 C   0  0  0  0  0  0  0  0  0  0  0  0
  1  2  1  0
  2  3  2  0
  3  4  1  0
  4  5  2  0
  5  6  1  0
  6  7  1  0
  7  8  2  0
  8  9  1  0
  9 10  1  0
 10 11  1  0
 10 12  1  0
  9 13  1  0
 13 14  2  0
 13 15  1  0
 15 16  2  0
 16 17  1  0
 17 18  1  0
 18 19  1  0
 19 20  2  0
 19 21  1  0
 21 22  1  0
 22 23  1  0
 23 24  1  0
 17 25  2  0
 25 26  1  0
 26 27  2  0
  5 28  1  0
 28 29  1  0
 28 30  2  0
 30  2  1  0
 27  7  1  0
 27 15  1  0
M  END
>  <energy>  (255) 
46.29

>  <full_id>  (255) 
MOL00011044-000971-03_1

>  <mol_id>  (255) 
MOL00011044-000971-03

>  <act_mol>  (255) 
0

>  <act_conf>  (255) 
0

$$$$
MOL00011078-000024-02
     RDKit          3D

 36 39  0  0  0  0  0  0  0  0999 V2000
   -8.8603    2.4866    1.2239 C   0  0  0  0  0  0  0  0  0  0  0  0
   -8.6164    2.6924   -0.1998 N   0  0  0  0  0  0  0  0  0  0  0  0
   -9.5429    3.5891   -0.8684 C   0  0  0  0  0  0  0  0  0  0  0  0
   -7.3768    2.4864   -0.8056 C   0  0  0  0  0  0  0  0  0  0  0  0
   -6.9868    3.1349   -1.7791 O   0  0  0  0  0  0  0  0  0  0  0  0
   -6.4478    1.4569   -0.2812 C   0  0  0  0  0  0  0  0  0  0  0  0
   -6.9164    0.2159    0.1521 C   0  0  0  0  0  0  0  0  0  0  0  0
   -6.0158   -0.7321    0.6350 C   0  0  0  0  0  0  0  0  0  0  0  0
   -4.6430   -0.4551    0.6746 C   0  0  0  0  0  0  0  0  0  0  0  0
   -4.1412    0.7599    0.2119 C   0  0  0  0  0  0  0  0  0  0  0  0
   -2.7749    1.1293    0.2016 N   0  0  0  0  0  0  0  0  0  0  0  0
   -1.6663    0.5725    0.6337 C   0  0  0  0  0  0  0  0  0  0  0  0
   -0.3392    0.9401    0.6183 C   0  0  0  0  0  0  0  0  0  0  0  0
    0.3861    1.9514    0.1817 N   0  0  0  0  0  0  0  0  0  0  0  0
    1.8529    1.9986    0.2379 C   0  0  0  0  0  0  0  0  0  0  0  0
    2.4847    1.2377   -0.9314 C   0  0  0  0  0  0  0  0  0  0  0  0
    2.7313    1.7796   -2.0071 O   0  0  0  0  0  0  0  0  0  0  0  0
    2.7109   -0.0964   -0.6814 N   0  0  0  0  0  0  0  0  0  0  0  0
    3.3528   -0.9674   -1.6351 C   0  0  0  0  0  0  0  0  0  0  0  0
    4.7708   -1.2511   -1.2162 C   0  0  0  0  0  0  0  0  0  0  0  0
    5.7977   -0.3605   -1.5485 C   0  0  0  0  0  0  0  0  0  0  0  0
    7.1144   -0.6044   -1.1418 C   0  0  0  0  0  0  0  0  0  0  0  0
    7.4310   -1.7404   -0.3829 C   0  0  0  0  0  0  0  0  0  0  0  0
    8.8054   -2.0036    0.0549 C   0  0  0  0  0  0  0  0  0  0  0  0
    9.9321   -1.1351    0.0124 C   0  0  0  0  0  0  0  0  0  0  0  0
   10.9629   -1.8679    0.5362 C   0  0  0  0  0  0  0  0  0  0  0  0
   10.5092   -3.0941    0.8798 O   0  0  0  0  0  0  0  0  0  0  0  0
    9.1646   -3.1859    0.5857 N   0  0  0  0  0  0  0  0  0  0  0  0
    6.3954   -2.6245   -0.0455 C   0  0  0  0  0  0  0  0  0  0  0  0
    5.0799   -2.3817   -0.4532 C   0  0  0  0  0  0  0  0  0  0  0  0
    0.0720   -0.3069    1.3016 C   0  0  0  0  0  0  0  0  0  0  0  0
    1.0977   -0.8473    1.6395 O   0  0  0  0  0  0  0  0  0  0  0  0
   -1.3561   -0.6884    1.3522 C   0  0  0  0  0  0  0  0  0  0  0  0
   -1.8900   -1.6699    1.8129 O   0  0  0  0  0  0  0  0  0  0  0  0
   -5.0666    1.7019   -0.2882 C   0  0  0  0  0  0  0  0  0  0  0  0
   -4.5349    2.8736   -0.7938 O   0  0  0  0  0  0  0  0  0  0  0  0
  1  2  1  0
  2  3  1  0
  2  4  1  0
  4  5  2  0
  4  6  1  0
  6  7  2  0
  7  8  1  0
  8  9  2  0
  9 10  1  0
 10 11  1  0
 11 12  1  0
 12 13  2  0
 13 14  1  0
 14 15  1  0
 15 16  1  0
 16 17  2  0
 16 18  1  0
 18 19  1  0
 19 20  1  0
 20 21  2  0
 21 22  1  0
 22 23  2  0
 23 24  1  0
 24 25  1  0
 25 26  2  0
 26 27  1  0
 27 28  1  0
 23 29  1  0
 29 30  2  0
 13 31  1  0
 31 32  2  0
 31 33  1  0
 33 34  2  0
 10 35  2  0
 35 36  1  0
 35  6  1  0
 33 12  1  0
 30 20  1  0
 28 24  2  0
M  END
>  <energy>  (256) 
177.73

>  <full_id>  (256) 
MOL00011078-000024-02_1

>  <mol_id>  (256) 
MOL00011078-000024-02

>  <act_mol>  (256) 
0

>  <act_conf>  (256) 
0

$$$$
MOL00011276-000231-02
     RDKit          3D

 31 34  0  0  0  0  0  0  0  0999 V2000
    4.3894   -0.2989   -2.9082 C   0  0  0  0  0  0  0  0  0  0  0  0
    3.9989    0.3075   -1.5891 C   0  0  0  0  0  0  0  0  0  0  0  0
    3.9760    1.7095   -1.4863 C   0  0  0  0  0  0  0  0  0  0  0  0
    3.6502    2.3410   -0.2845 C   0  0  0  0  0  0  0  0  0  0  0  0
    3.3631    1.5850    0.8464 C   0  0  0  0  0  0  0  0  0  0  0  0
    3.3925    0.1946    0.7747 C   0  0  0  0  0  0  0  0  0  0  0  0
    3.6889   -0.4467   -0.4396 C   0  0  0  0  0  0  0  0  0  0  0  0
    3.6336   -2.2337   -0.4598 S   0  0  0  0  0  6  0  0  0  0  0  0
    3.4626   -2.7129    0.8943 O   0  0  0  0  0  0  0  0  0  0  0  0
    4.7322   -2.7104   -1.2722 O   0  0  0  0  0  0  0  0  0  0  0  0
    2.2304   -2.5915   -1.3217 N   0  0  0  0  0  0  0  0  0  0  0  0
    1.1339   -1.7297   -1.3923 C   0  0  0  0  0  0  0  0  0  0  0  0
    0.7816   -1.2966   -2.5515 N   0  0  0  0  0  0  0  0  0  0  0  0
   -0.2595   -0.4044   -2.5964 C   0  0  0  0  0  0  0  0  0  0  0  0
   -0.9428    0.0522   -1.5890 N   0  0  0  0  0  0  0  0  0  0  0  0
   -0.5679   -0.4460   -0.3915 N   0  0  0  0  0  0  0  0  0  0  0  0
   -1.1181   -0.1308    0.8283 C   0  0  0  0  0  0  0  0  0  0  0  0
   -2.1520    0.9571    0.9848 C   0  0  2  0  0  0  0  0  0  0  0  0
   -1.5223    2.2788    0.7182 C   0  0  0  0  0  0  0  0  0  0  0  0
   -0.9964    3.2930    0.4971 N   0  0  0  0  0  0  0  0  0  0  0  0
   -2.5895    0.9037    2.3682 O   0  0  0  0  0  0  0  0  0  0  0  0
   -4.0333    1.0254    2.4137 C   0  0  2  0  0  0  0  0  0  0  0  0
   -4.6054   -0.2631    3.0135 C   0  0  0  0  0  0  0  0  0  0  0  0
   -4.4352   -1.3664    2.1267 O   0  0  0  0  0  0  0  0  0  0  0  0
   -4.5130    1.2997    0.9919 C   0  0  1  0  0  0  0  0  0  0  0  0
   -4.5826    2.7140    0.7645 O   0  0  0  0  0  0  0  0  0  0  0  0
   -3.4136    0.7037    0.1332 C   0  0  1  0  0  0  0  0  0  0  0  0
   -3.4375    1.2747   -1.1804 O   0  0  0  0  0  0  0  0  0  0  0  0
   -0.5322   -0.9709    1.7644 C   0  0  0  0  0  0  0  0  0  0  0  0
    0.4220   -1.7700    1.0925 C   0  0  0  0  0  0  0  0  0  0  0  0
    0.4165   -1.3733   -0.2262 C   0  0  0  0  0  0  0  0  0  0  0  0
  1  2  1  0
  2  3  2  0
  3  4  1  0
  4  5  2  0
  5  6  1  0
  6  7  2  0
  7  8  1  0
  8  9  2  0
  8 10  2  0
  8 11  1  0
 11 12  1  0
 12 13  2  0
 13 14  1  0
 14 15  2  0
 15 16  1  0
 16 17  1  0
 17 18  1  0
 18 19  1  6
 19 20  3  0
 18 21  1  0
 21 22  1  0
 22 23  1  6
 23 24  1  0
 22 25  1  0
 25 26  1  1
 25 27  1  0
 27 28  1  6
 17 29  2  0
 29 30  1  0
 30 31  2  0
  7  2  1  0
 31 12  1  0
 31 16  1  0
 27 18  1  0
M  END
>  <energy>  (257) 
-58.51

>  <full_id>  (257) 
MOL00011276-000231-02_1

>  <mol_id>  (257) 
MOL00011276-000231-02

>  <act_mol>  (257) 
0

>  <act_conf>  (257) 
0

$$$$
MOL00011311-001513-02
     RDKit          3D

 27 29  0  0  0  0  0  0  0  0999 V2000
   -7.0995    0.4415   -1.3103 N   0  0  0  0  0  0  0  0  0  0  0  0
   -5.8956    0.5511   -1.9420 C   0  0  0  0  0  0  0  0  0  0  0  0
   -5.8361    0.6060   -3.1645 O   0  0  0  0  0  0  0  0  0  0  0  0
   -4.6606    0.5320   -1.1133 C   0  0  0  0  0  0  0  0  0  0  0  0
   -3.5494   -0.1044   -1.6943 C   0  0  0  0  0  0  0  0  0  0  0  0
   -2.3372   -0.1979   -1.0074 C   0  0  0  0  0  0  0  0  0  0  0  0
   -2.2140    0.3388    0.2717 C   0  0  0  0  0  0  0  0  0  0  0  0
   -0.9904    0.2726    0.9430 N   0  0  0  0  0  0  0  0  0  0  0  0
   -0.8069   -0.6438    1.8405 C   0  0  0  0  0  0  0  0  0  0  0  0
   -1.6697   -1.6386    2.2315 N   0  0  0  0  0  0  0  0  0  0  0  0
    0.4759   -0.6790    2.5413 C   0  0  0  0  0  0  0  0  0  0  0  0
    0.8008   -1.6955    3.3578 N   0  0  0  0  0  0  0  0  0  0  0  0
    2.0785   -1.3934    3.8124 O   0  0  0  0  0  0  0  0  0  0  0  0
    2.5445   -0.2066    3.2693 N   0  0  0  0  0  0  0  0  0  0  0  0
    1.5591    0.2411    2.4890 C   0  0  0  0  0  0  0  0  0  0  0  0
    1.5598    1.3853    1.7517 N   0  0  0  0  0  0  0  0  0  0  0  0
    2.8183    1.9472    1.2707 C   0  0  0  0  0  0  0  0  0  0  0  0
    3.2994    1.2238   -0.0087 C   0  0  0  0  0  0  0  0  0  0  0  0
    2.2518    1.0632   -1.0424 N   0  0  0  0  0  0  0  0  0  0  0  0
    2.7321    0.1729   -2.1206 C   0  0  0  0  0  0  0  0  0  0  0  0
    1.6825    0.0209   -3.2320 C   0  0  0  0  0  0  0  0  0  0  0  0
    1.3306    1.2927   -3.7898 O   0  0  0  0  0  0  0  0  0  0  0  0
    0.8202    2.1542   -2.7646 C   0  0  0  0  0  0  0  0  0  0  0  0
    1.8503    2.3548   -1.6402 C   0  0  0  0  0  0  0  0  0  0  0  0
   -3.3027    1.0012    0.8429 C   0  0  0  0  0  0  0  0  0  0  0  0
   -4.5233    1.1030    0.1600 C   0  0  0  0  0  0  0  0  0  0  0  0
   -5.8845    2.1005    1.0353 Br  0  0  0  0  0  0  0  0  0  0  0  0
  1  2  1  0
  2  3  2  0
  2  4  1  0
  4  5  2  0
  5  6  1  0
  6  7  2  0
  7  8  1  0
  8  9  2  0
  9 10  1  0
  9 11  1  0
 11 12  2  0
 12 13  1  0
 13 14  1  0
 14 15  2  0
 15 16  1  0
 16 17  1  0
 17 18  1  0
 18 19  1  0
 19 20  1  0
 20 21  1  0
 21 22  1  0
 22 23  1  0
 23 24  1  0
  7 25  1  0
 25 26  2  0
 26 27  1  0
 26  4  1  0
 15 11  1  0
 24 19  1  0
M  END
>  <energy>  (258) 
61.90

>  <full_id>  (258) 
MOL00011311-001513-02_1

>  <mol_id>  (258) 
MOL00011311-001513-02

>  <act_mol>  (258) 
0

>  <act_conf>  (258) 
0

$$$$
MOL00010803-001018-02
     RDKit          3D

 34 36  0  0  0  0  0  0  0  0999 V2000
    9.5318   -3.1919    1.9976 C   0  0  0  0  0  0  0  0  0  0  0  0
    9.1674   -1.7292    1.7852 C   0  0  0  0  0  0  0  0  0  0  0  0
    7.7479   -1.5792    1.2316 C   0  0  0  0  0  0  0  0  0  0  0  0
    7.3664   -0.1072    1.0140 C   0  0  2  0  0  0  0  0  0  0  0  0
    7.3405    0.5706    2.2708 O   0  0  0  0  0  0  0  0  0  0  0  0
    6.0230    0.0547    0.3329 C   0  0  0  0  0  0  0  0  0  0  0  0
    5.9247    0.7028   -0.9026 C   0  0  0  0  0  0  0  0  0  0  0  0
    4.6849    0.8502   -1.5401 C   0  0  0  0  0  0  0  0  0  0  0  0
    3.5038    0.3797   -0.9590 C   0  0  0  0  0  0  0  0  0  0  0  0
    2.2561    0.3960   -1.5861 N   0  0  0  0  0  0  0  0  0  0  0  0
    1.9255    1.3230   -2.6445 C   0  0  2  0  0  0  0  0  0  0  0  0
    1.7623    2.7201   -2.3571 N   0  0  0  0  0  0  0  0  0  0  0  0
    0.5232    2.9374   -1.6790 C   0  0  1  0  0  0  0  0  0  0  0  0
    0.3487    4.7010   -1.6036 Cl  0  0  0  0  0  0  0  0  0  0  0  0
   -0.5549    2.4984   -2.5074 N   0  0  0  0  0  0  0  0  0  0  0  0
   -0.4275    1.0854   -2.7360 C   0  0  2  0  0  0  0  0  0  0  0  0
   -0.6319    0.1499   -1.6455 N   0  0  0  0  0  0  0  0  0  0  0  0
   -1.9139   -0.1292   -1.1591 C   0  0  0  0  0  0  0  0  0  0  0  0
   -3.0018    0.7430   -1.2625 C   0  0  0  0  0  0  0  0  0  0  0  0
   -4.2551    0.4195   -0.7193 C   0  0  0  0  0  0  0  0  0  0  0  0
   -4.4357   -0.7747   -0.0194 C   0  0  0  0  0  0  0  0  0  0  0  0
   -5.7512   -1.1920    0.5592 C   0  0  0  0  0  0  0  0  0  0  0  0
   -5.8391   -2.2944    1.0991 O   0  0  0  0  0  0  0  0  0  0  0  0
   -6.9491   -0.2704    0.4069 C   0  0  0  0  0  0  0  0  0  0  0  0
   -8.1078   -0.6396    1.3397 C   0  0  0  0  0  0  0  0  0  0  0  0
   -7.7971   -0.4186    2.8291 C   0  0  0  0  0  0  0  0  0  0  0  0
   -7.3303    0.9457    3.1376 N   0  0  0  0  0  0  0  0  0  0  0  0
   -6.7403    0.9821    4.4791 C   0  0  0  0  0  0  0  0  0  0  0  0
   -8.4147    1.9264    3.0482 C   0  0  0  0  0  0  0  0  0  0  0  0
   -3.3396   -1.6272    0.1440 C   0  0  0  0  0  0  0  0  0  0  0  0
   -2.0960   -1.2982   -0.4066 C   0  0  0  0  0  0  0  0  0  0  0  0
    0.8006    0.9748   -3.4786 N   0  0  0  0  0  0  0  0  0  0  0  0
    3.6162   -0.2927    0.2681 C   0  0  0  0  0  0  0  0  0  0  0  0
    4.8488   -0.4433    0.9136 C   0  0  0  0  0  0  0  0  0  0  0  0
  1  2  1  0
  2  3  1  0
  3  4  1  0
  4  5  1  1
  4  6  1  0
  6  7  2  0
  7  8  1  0
  8  9  2  0
  9 10  1  0
 11 10  1  1
 11 12  1  0
 12 13  1  0
 13 14  1  6
 13 15  1  0
 15 16  1  0
 16 17  1  1
 17 18  1  0
 18 19  2  0
 19 20  1  0
 20 21  2  0
 21 22  1  0
 22 23  2  0
 22 24  1  0
 24 25  1  0
 25 26  1  0
 26 27  1  0
 27 28  1  0
 27 29  1  0
 21 30  1  0
 30 31  2  0
 16 32  1  0
  9 33  1  0
 33 34  2  0
 34  6  1  0
 32 11  1  0
 31 18  1  0
M  END
>  <energy>  (259) 
-399.39

>  <full_id>  (259) 
MOL00010803-001018-02_1

>  <mol_id>  (259) 
MOL00010803-001018-02

>  <act_mol>  (259) 
0

>  <act_conf>  (259) 
0

$$$$
MOL00011273-001089-03
     RDKit          3D

 28 31  0  0  0  0  0  0  0  0999 V2000
   -7.6906    0.7794   -1.7534 C   0  0  0  0  0  0  0  0  0  0  0  0
   -6.2662    0.7504   -1.3471 C   0  0  0  0  0  0  0  0  0  0  0  0
   -5.7913    1.4884   -0.3041 N   0  0  0  0  0  0  0  0  0  0  0  0
   -4.4773    1.3404   -0.0877 N   0  0  0  0  0  0  0  0  0  0  0  0
   -4.0715    0.4572   -1.0226 C   0  0  0  0  0  0  0  0  0  0  0  0
   -2.6542    0.0256   -1.1810 C   0  0  0  0  0  0  0  0  0  0  0  0
   -2.2791   -0.3748   -2.2852 O   0  0  0  0  0  0  0  0  0  0  0  0
   -1.7917    0.0694   -0.0493 N   0  0  0  0  0  0  0  0  0  0  0  0
   -2.3494   -0.0213    1.3135 C   0  0  0  0  0  0  0  0  0  0  0  0
   -2.2401    1.2923    2.0909 C   0  0  0  0  0  0  0  0  0  0  0  0
   -2.9929    1.2041    3.3460 C   0  0  0  0  0  0  0  0  0  0  0  0
   -3.5805    1.1238    4.3437 N   0  0  0  0  0  0  0  0  0  0  0  0
   -0.3524    0.0917   -0.2122 C   0  0  0  0  0  0  0  0  0  0  0  0
    0.2366    0.5242   -1.4069 C   0  0  0  0  0  0  0  0  0  0  0  0
    1.6289    0.5716   -1.5741 C   0  0  0  0  0  0  0  0  0  0  0  0
    2.4978    0.1818   -0.5495 C   0  0  0  0  0  0  0  0  0  0  0  0
    1.9262   -0.1975    0.6770 C   0  0  0  0  0  0  0  0  0  0  0  0
    0.5242   -0.2538    0.8280 C   0  0  0  0  0  0  0  0  0  0  0  0
    2.8051   -0.6040    1.8369 C   0  0  0  0  0  0  0  0  0  0  0  0
    4.2576   -0.1493    1.6692 C   0  0  0  0  0  0  0  0  0  0  0  0
    4.7319   -0.5263    0.3379 N   0  0  0  0  0  0  0  0  0  0  0  0
    6.1844   -0.3310    0.2012 C   0  0  0  0  0  0  0  0  0  0  0  0
    6.6790   -0.7648   -1.1942 C   0  0  0  0  0  0  0  0  0  0  0  0
    5.9933   -0.0617   -2.2872 N   0  0  0  0  0  0  0  0  0  0  0  0
    4.5292   -0.1839   -2.1162 C   0  0  0  0  0  0  0  0  0  0  0  0
    4.0182    0.2643   -0.7072 C   0  0  1  0  0  0  0  0  0  0  0  0
   -5.1758    0.0686   -1.8535 C   0  0  0  0  0  0  0  0  0  0  0  0
   -5.1439   -0.8657   -3.0083 C   0  0  0  0  0  0  0  0  0  0  0  0
  1  2  1  0
  2  3  1  0
  3  4  1  0
  4  5  2  0
  5  6  1  0
  6  7  2  0
  6  8  1  0
  8  9  1  0
  9 10  1  0
 10 11  1  0
 11 12  3  0
  8 13  1  0
 13 14  2  0
 14 15  1  0
 15 16  2  0
 16 17  1  0
 17 18  2  0
 17 19  1  0
 19 20  1  0
 20 21  1  0
 21 22  1  0
 22 23  1  0
 23 24  1  0
 24 25  1  0
 26 25  1  6
  5 27  1  0
 27 28  1  0
 27  2  2  0
 18 13  1  0
 26 21  1  0
 26 16  1  0
M  END
>  <energy>  (260) 
167.08

>  <full_id>  (260) 
MOL00011273-001089-03_1

>  <mol_id>  (260) 
MOL00011273-001089-03

>  <act_mol>  (260) 
0

>  <act_conf>  (260) 
0

$$$$
MOL00011444-000865-03
     RDKit          3D

 26 27  0  0  0  0  0  0  0  0999 V2000
   -3.2226    2.8026   -0.8788 C   0  0  0  0  0  0  0  0  0  0  0  0
   -3.2182    1.7767   -0.0067 C   0  0  0  0  0  0  0  0  0  0  0  0
   -2.7559    0.4425   -0.4480 C   0  0  0  0  0  0  0  0  0  0  0  0
   -1.3781    0.1403   -0.5267 C   0  0  0  0  0  0  0  0  0  0  0  0
   -0.4125    1.1229   -0.1553 N   0  0  0  0  0  0  0  0  0  0  0  0
    0.9902    0.9303   -0.0507 C   0  0  0  0  0  0  0  0  0  0  0  0
    1.5626    0.1163    0.9488 C   0  0  0  0  0  0  0  0  0  0  0  0
    0.7359   -0.5247    2.0298 C   0  0  0  0  0  0  0  0  0  0  0  0
    2.9491   -0.1125    0.9318 C   0  0  0  0  0  0  0  0  0  0  0  0
    3.7449    0.4709   -0.0562 C   0  0  0  0  0  0  0  0  0  0  0  0
    5.1253    0.2653   -0.0343 O   0  0  0  0  0  0  0  0  0  0  0  0
    5.5039   -0.8804   -0.7068 C   0  0  0  0  0  0  0  0  0  0  0  0
    6.8509   -1.0325   -0.6494 N   0  0  0  0  0  0  0  0  0  0  0  0
    4.7782   -1.6747   -1.2868 O   0  0  0  0  0  0  0  0  0  0  0  0
    3.2037    1.3107   -1.0200 C   0  0  0  0  0  0  0  0  0  0  0  0
    1.8320    1.5227   -1.0121 C   0  0  0  0  0  0  0  0  0  0  0  0
    1.2934    2.3133   -1.9548 F   0  0  0  0  0  0  0  0  0  0  0  0
   -1.0025   -1.1400   -0.9385 C   0  0  0  0  0  0  0  0  0  0  0  0
   -1.9891   -2.0541   -1.2593 C   0  0  0  0  0  0  0  0  0  0  0  0
   -3.3098   -1.7936   -1.1880 N   0  0  0  0  0  0  0  0  0  0  0  0
   -3.6767   -0.5667   -0.7787 C   0  0  0  0  0  0  0  0  0  0  0  0
   -5.0572   -0.3574   -0.7358 N   0  0  0  0  0  0  0  0  0  0  0  0
   -3.6764    1.8480    1.4198 C   0  0  0  0  0  0  0  0  0  0  0  0
   -4.7671    1.0644    1.6437 F   0  0  0  0  0  0  0  0  0  0  0  0
   -4.0326    3.1086    1.7853 F   0  0  0  0  0  0  0  0  0  0  0  0
   -2.7207    1.4484    2.2967 F   0  0  0  0  0  0  0  0  0  0  0  0
  1  2  2  0
  2  3  1  0
  3  4  2  0
  4  5  1  0
  5  6  1  0
  6  7  2  0
  7  8  1  0
  7  9  1  0
  9 10  2  0
 10 11  1  0
 11 12  1  0
 12 13  1  0
 12 14  2  0
 10 15  1  0
 15 16  2  0
 16 17  1  0
  4 18  1  0
 18 19  2  0
 19 20  1  0
 20 21  2  0
 21 22  1  0
  2 23  1  0
 23 24  1  0
 23 25  1  0
 23 26  1  0
 21  3  1  0
 16  6  1  0
M  END
>  <energy>  (261) 
1.26

>  <full_id>  (261) 
MOL00011444-000865-03_1

>  <mol_id>  (261) 
MOL00011444-000865-03

>  <act_mol>  (261) 
0

>  <act_conf>  (261) 
0

$$$$
MOL00011346-000123-04
     RDKit          3D

 31 33  0  0  0  0  0  0  0  0999 V2000
    8.4156    1.7475   -3.3939 C   0  0  0  0  0  0  0  0  0  0  0  0
    7.1542    1.4389   -2.7258 N   0  0  0  0  0  0  0  0  0  0  0  0
    6.0191    1.9502   -3.5321 C   0  0  0  0  0  0  0  0  0  0  0  0
    4.6980    1.7896   -2.7656 C   0  0  0  0  0  0  0  0  0  0  0  0
    3.6249    1.7589   -3.3575 O   0  0  0  0  0  0  0  0  0  0  0  0
    4.8901    1.7392   -1.4066 N   0  0  0  0  0  0  0  0  0  0  0  0
    3.9174    1.5821   -0.4359 C   0  0  0  0  0  0  0  0  0  0  0  0
    4.3700    1.5655    0.8036 N   0  0  0  0  0  0  0  0  0  0  0  0
    3.4109    1.3976    1.7002 C   0  0  0  0  0  0  0  0  0  0  0  0
    3.9100    1.3678    3.3328 Cl  0  0  0  0  0  0  0  0  0  0  0  0
    2.1111    1.2481    1.4894 N   0  0  0  0  0  0  0  0  0  0  0  0
    1.7766    1.2758    0.2164 C   0  0  0  0  0  0  0  0  0  0  0  0
    0.4597    1.1158   -0.1828 N   0  0  0  0  0  0  0  0  0  0  0  0
   -0.4098    0.1853    0.5646 C   0  0  2  0  0  0  0  0  0  0  0  0
    0.2695   -1.1004    0.9144 C   0  0  0  0  0  0  0  0  0  0  0  0
    0.7791   -2.1105    1.1757 N   0  0  0  0  0  0  0  0  0  0  0  0
   -1.6061   -0.1348   -0.3756 C   0  0  0  0  0  0  0  0  0  0  0  0
   -2.7442   -0.8944    0.3095 C   0  0  0  0  0  0  0  0  0  0  0  0
   -3.2596   -0.1452    1.5443 C   0  0  1  0  0  0  0  0  0  0  0  0
   -4.2529   -0.9350    2.2531 N   0  0  0  0  0  0  0  0  0  0  0  0
   -5.5081   -1.0873    1.6980 C   0  0  0  0  0  0  0  0  0  0  0  0
   -6.1609   -2.1826    2.0472 N   0  0  0  0  0  0  0  0  0  0  0  0
   -7.3721   -2.2965    1.5124 C   0  0  0  0  0  0  0  0  0  0  0  0
   -8.2455   -3.7037    1.9327 Cl  0  0  0  0  0  0  0  0  0  0  0  0
   -7.9751   -1.4660    0.6838 N   0  0  0  0  0  0  0  0  0  0  0  0
   -7.2108   -0.4251    0.4171 C   0  0  0  0  0  0  0  0  0  0  0  0
   -7.8564    0.7220   -0.6713 Cl  0  0  0  0  0  0  0  0  0  0  0  0
   -5.9888   -0.1723    0.8699 N   0  0  0  0  0  0  0  0  0  0  0  0
   -2.1043    0.1474    2.5101 C   0  0  0  0  0  0  0  0  0  0  0  0
   -0.9515    0.8924    1.8314 C   0  0  0  0  0  0  0  0  0  0  0  0
    2.6410    1.4419   -0.7697 N   0  0  0  0  0  0  0  0  0  0  0  0
  1  2  1  0
  2  3  1  0
  3  4  1  0
  4  5  2  0
  4  6  1  0
  6  7  1  0
  7  8  2  0
  8  9  1  0
  9 10  1  0
  9 11  2  0
 11 12  1  0
 12 13  1  0
 13 14  1  0
 14 15  1  1
 15 16  3  0
 14 17  1  0
 17 18  1  0
 18 19  1  0
 19 20  1  1
 20 21  1  0
 21 22  2  0
 22 23  1  0
 23 24  1  0
 23 25  2  0
 25 26  1  0
 26 27  1  0
 26 28  2  0
 19 29  1  0
 29 30  1  0
 12 31  2  0
 31  7  1  0
 30 14  1  0
 28 21  1  0
M  END
>  <energy>  (262) 
-381.95

>  <full_id>  (262) 
MOL00011346-000123-04_1

>  <mol_id>  (262) 
MOL00011346-000123-04

>  <act_mol>  (262) 
0

>  <act_conf>  (262) 
0

$$$$
MOL00011187-002943-04
     RDKit          3D

 27 27  0  0  0  0  0  0  0  0999 V2000
   -2.1114   -2.5492   -3.1279 C   0  0  0  0  0  0  0  0  0  0  0  0
   -3.1133   -2.3169   -2.0023 C   0  0  0  0  0  0  0  0  0  0  0  0
   -3.3930   -3.6160   -1.2563 C   0  0  0  0  0  0  0  0  0  0  0  0
   -2.5607   -1.3941   -1.0471 O   0  0  0  0  0  0  0  0  0  0  0  0
   -2.6711   -0.0668   -1.3538 C   0  0  0  0  0  0  0  0  0  0  0  0
   -3.1989    0.3695   -2.3739 O   0  0  0  0  0  0  0  0  0  0  0  0
   -1.9417    0.8183   -0.2861 C   0  0  1  0  0  0  0  0  0  0  0  0
   -2.2674    2.2484   -0.5198 N   0  0  0  0  0  0  0  0  0  0  0  0
   -2.4186    0.4524    1.1590 C   0  0  0  0  0  0  0  0  0  0  0  0
   -3.8944    0.6892    1.6354 C   0  0  0  0  0  0  0  0  0  0  0  0
   -4.0292    0.0259    3.0279 C   0  0  0  0  0  0  0  0  0  0  0  0
   -4.9456    0.0553    0.7150 C   0  0  0  0  0  0  0  0  0  0  0  0
   -4.2224    2.1836    1.8112 C   0  0  0  0  0  0  0  0  0  0  0  0
   -0.4165    0.6341   -0.5116 C   0  0  0  0  0  0  0  0  0  0  0  0
    0.4566    0.1650    0.4829 C   0  0  0  0  0  0  0  0  0  0  0  0
    1.8238    0.0043    0.2290 C   0  0  0  0  0  0  0  0  0  0  0  0
    2.3596    0.2966   -1.0299 C   0  0  0  0  0  0  0  0  0  0  0  0
    3.8381    0.1288   -1.2867 C   0  0  0  0  0  0  0  0  0  0  0  0
    4.5949    1.2338   -0.6789 N   0  0  0  0  0  0  0  0  0  0  0  0
    6.2562    1.1153   -0.8059 S   0  0  0  0  0  6  0  0  0  0  0  0
    6.5612    0.7074   -2.1557 O   0  0  0  0  0  0  0  0  0  0  0  0
    6.8194    2.3125   -0.2317 O   0  0  0  0  0  0  0  0  0  0  0  0
    6.5498   -0.1794    0.2391 N   0  0  0  0  0  0  0  0  0  0  0  0
    7.8930   -0.7750    0.0693 C   0  0  0  0  0  0  0  0  0  0  0  0
    6.2567    0.0969    1.6628 C   0  0  0  0  0  0  0  0  0  0  0  0
    1.5060    0.7728   -2.0280 C   0  0  0  0  0  0  0  0  0  0  0  0
    0.1411    0.9360   -1.7729 C   0  0  0  0  0  0  0  0  0  0  0  0
  2  1  1  0
  2  3  1  0
  2  4  1  0
  4  5  1  0
  5  6  2  0
  5  7  1  0
  7  8  1  6
  7  9  1  0
  9 10  1  0
 10 11  1  0
 10 12  1  0
 10 13  1  0
  7 14  1  0
 14 15  2  0
 15 16  1  0
 16 17  2  0
 17 18  1  0
 18 19  1  0
 20 19  1  0
 20 21  2  0
 20 22  2  0
 20 23  1  0
 23 24  1  0
 23 25  1  0
 17 26  1  0
 26 27  2  0
 27 14  1  0
M  END
>  <energy>  (263) 
-97.99

>  <full_id>  (263) 
MOL00011187-002943-04_1

>  <mol_id>  (263) 
MOL00011187-002943-04

>  <act_mol>  (263) 
0

>  <act_conf>  (263) 
0

$$$$
MOL00011138-000673-02
     RDKit          3D

 33 36  0  0  0  0  0  0  0  0999 V2000
    9.6425    0.2230   -0.4137 C   0  0  0  0  0  0  0  0  0  0  0  0
    8.2328   -0.2450   -0.0722 C   0  0  0  0  0  0  0  0  0  0  0  0
    7.1633    0.3187   -1.0288 C   0  0  1  0  0  0  0  0  0  0  0  0
    7.3734   -0.1622   -2.3978 N   0  0  0  0  0  0  0  0  0  0  0  0
    5.7471    0.0033   -0.5779 C   0  0  0  0  0  0  0  0  0  0  0  0
    5.3414   -1.2971   -0.2538 C   0  0  0  0  0  0  0  0  0  0  0  0
    4.0221   -1.5578    0.1345 C   0  0  0  0  0  0  0  0  0  0  0  0
    3.0618   -0.5368    0.2098 C   0  0  0  0  0  0  0  0  0  0  0  0
    1.7556   -0.8777    0.5726 N   0  0  0  0  0  0  0  0  0  0  0  0
    0.5527   -0.1798    0.6593 C   0  0  0  0  0  0  0  0  0  0  0  0
   -0.4758   -0.9068    1.0750 N   0  0  0  0  0  0  0  0  0  0  0  0
   -1.6370   -0.2781    1.1675 C   0  0  0  0  0  0  0  0  0  0  0  0
   -2.7665   -0.9593    1.5971 N   0  0  0  0  0  0  0  0  0  0  0  0
   -2.8992   -2.3336    1.1262 C   0  0  0  0  0  0  0  0  0  0  0  0
   -3.2808   -2.4219   -0.3772 C   0  0  1  0  0  0  0  0  0  0  0  0
   -3.5158   -3.8858   -0.7702 C   0  0  0  0  0  0  0  0  0  0  0  0
   -5.0239   -4.0246   -0.7956 C   0  0  0  0  0  0  0  0  0  0  0  0
   -5.4593   -2.6755   -1.3255 C   0  0  0  0  0  0  0  0  0  0  0  0
   -4.5689   -1.7237   -0.6433 N   0  0  0  0  0  0  0  0  0  0  0  0
   -4.3905   -0.4898   -1.4219 C   0  0  0  0  0  0  0  0  0  0  0  0
   -5.6770    0.3231   -1.5170 C   0  0  0  0  0  0  0  0  0  0  0  0
   -1.8139    0.9942    0.8591 N   0  0  0  0  0  0  0  0  0  0  0  0
   -0.7450    1.6479    0.4327 C   0  0  0  0  0  0  0  0  0  0  0  0
   -0.8208    2.9843    0.0448 N   0  0  0  0  0  0  0  0  0  0  0  0
   -1.8851    3.8784   -0.0968 C   0  0  0  0  0  0  0  0  0  0  0  0
   -1.6257    5.1757   -0.5580 C   0  0  0  0  0  0  0  0  0  0  0  0
   -2.6601    6.0991   -0.7118 C   0  0  0  0  0  0  0  0  0  0  0  0
   -3.9457    5.7015   -0.3946 C   0  0  0  0  0  0  0  0  0  0  0  0
   -4.2512    4.4704    0.0587 N   0  0  0  0  0  0  0  0  0  0  0  0
   -3.2181    3.5977    0.2020 C   0  0  0  0  0  0  0  0  0  0  0  0
    0.4569    1.0985    0.3215 N   0  0  0  0  0  0  0  0  0  0  0  0
    3.4693    0.7546   -0.1299 C   0  0  0  0  0  0  0  0  0  0  0  0
    4.7893    1.0241   -0.5174 C   0  0  0  0  0  0  0  0  0  0  0  0
  1  2  1  0
  2  3  1  0
  3  4  1  6
  3  5  1  0
  5  6  2  0
  6  7  1  0
  7  8  2  0
  8  9  1  0
  9 10  1  0
 10 11  2  0
 11 12  1  0
 12 13  1  0
 13 14  1  0
 15 14  1  1
 15 16  1  0
 16 17  1  0
 17 18  1  0
 18 19  1  0
 19 20  1  0
 20 21  1  0
 12 22  2  0
 22 23  1  0
 23 24  1  0
 24 25  1  0
 25 26  2  0
 26 27  1  0
 27 28  2  0
 28 29  1  0
 29 30  2  0
 23 31  2  0
  8 32  1  0
 32 33  2  0
 33  5  1  0
 31 10  1  0
 19 15  1  0
 30 25  1  0
M  END
>  <energy>  (264) 
-184.67

>  <full_id>  (264) 
MOL00011138-000673-02_1

>  <mol_id>  (264) 
MOL00011138-000673-02

>  <act_mol>  (264) 
0

>  <act_conf>  (264) 
0

$$$$
MOL00011132-000807-04
     RDKit          3D

 36 37  0  0  0  0  0  0  0  0999 V2000
   -5.7439    5.9508    0.6981 C   0  0  0  0  0  0  0  0  0  0  0  0
   -4.6999    4.8573    0.5576 C   0  0  0  0  0  0  0  0  0  0  0  0
   -5.1703    3.5923    1.0787 N   0  0  0  0  0  0  0  0  0  0  0  0
   -5.9967    2.7728    0.3428 C   0  0  0  0  0  0  0  0  0  0  0  0
   -6.4782    3.0505   -0.7482 O   0  0  0  0  0  0  0  0  0  0  0  0
   -6.3002    1.4735    0.9865 C   0  0  0  0  0  0  0  0  0  0  0  0
   -6.9503    1.4952    2.2301 C   0  0  0  0  0  0  0  0  0  0  0  0
   -7.2832    0.3003    2.8639 C   0  0  0  0  0  0  0  0  0  0  0  0
   -6.9738   -0.9163    2.2581 C   0  0  0  0  0  0  0  0  0  0  0  0
   -6.3263   -0.9392    1.0193 C   0  0  0  0  0  0  0  0  0  0  0  0
   -5.9756    0.2547    0.3642 C   0  0  0  0  0  0  0  0  0  0  0  0
   -5.2199    0.1971   -0.9410 C   0  0  0  0  0  0  0  0  0  0  0  0
   -3.7946    0.5336   -0.8025 N   0  0  0  0  0  0  0  0  0  0  0  0
   -3.0478   -0.5010   -0.0929 C   0  0  0  0  0  0  0  0  0  0  0  0
   -1.5788   -0.1535   -0.0151 C   0  0  0  0  0  0  0  0  0  0  0  0
   -0.6440   -1.0072   -0.6238 C   0  0  0  0  0  0  0  0  0  0  0  0
    0.7313   -0.7427   -0.5621 C   0  0  0  0  0  0  0  0  0  0  0  0
    1.2077    0.3992    0.0975 C   0  0  0  0  0  0  0  0  0  0  0  0
    2.6654    0.6976    0.2537 C   0  0  0  0  0  0  0  0  0  0  0  0
    3.0088    1.5341    1.0826 O   0  0  0  0  0  0  0  0  0  0  0  0
    3.5262    0.0839   -0.6258 N   0  0  0  0  0  0  0  0  0  0  0  0
    4.6206   -0.6125   -0.1478 C   0  0  0  0  0  0  0  0  0  0  0  0
    5.3010   -0.3074    0.8261 O   0  0  0  0  0  0  0  0  0  0  0  0
    4.9296   -1.8688   -1.0006 C   0  0  2  0  0  0  0  0  0  0  0  0
    6.4447   -1.9740   -1.2688 C   0  0  0  0  0  0  0  0  0  0  0  0
    7.0531   -0.7801   -2.0294 C   0  0  0  0  0  0  0  0  0  0  0  0
    6.4754   -0.5947   -3.3751 N   0  0  0  0  0  0  0  0  0  0  0  0
    7.0526   -1.5453   -4.3329 C   0  0  0  0  0  0  0  0  0  0  0  0
    6.7358    0.7745   -3.8384 C   0  0  0  0  0  0  0  0  0  0  0  0
    4.0870   -1.8465   -2.2348 N   0  0  0  0  0  0  0  0  0  0  0  0
    3.8651   -3.1955   -2.7447 C   0  0  0  0  0  0  0  0  0  0  0  0
    0.2911    1.2631    0.7069 C   0  0  0  0  0  0  0  0  0  0  0  0
   -1.0830    0.9817    0.6498 C   0  0  0  0  0  0  0  0  0  0  0  0
   -1.9770    1.9227    1.3141 N   0  0  0  0  0  4  0  0  0  0  0  0
   -1.8711    3.1155    0.9948 O   0  0  0  0  0  0  0  0  0  0  0  0
   -2.7306    1.4814    2.1936 O   0  0  0  0  0  1  0  0  0  0  0  0
  1  2  1  0
  2  3  1  0
  3  4  1  0
  4  5  2  0
  4  6  1  0
  6  7  2  0
  7  8  1  0
  8  9  2  0
  9 10  1  0
 10 11  2  0
 11 12  1  0
 12 13  1  0
 13 14  1  0
 14 15  1  0
 15 16  2  0
 16 17  1  0
 17 18  2  0
 18 19  1  0
 19 20  2  0
 19 21  1  0
 21 22  1  0
 22 23  2  0
 22 24  1  0
 24 25  1  6
 25 26  1  0
 26 27  1  0
 27 28  1  0
 27 29  1  0
 24 30  1  0
 30 31  1  0
 18 32  1  0
 32 33  2  0
 33 34  1  0
 34 35  2  0
 34 36  1  0
 11  6  1  0
 33 15  1  0
M  CHG  2  34   1  36  -1
M  END
>  <energy>  (265) 
54.21

>  <full_id>  (265) 
MOL00011132-000807-04_1

>  <mol_id>  (265) 
MOL00011132-000807-04

>  <act_mol>  (265) 
0

>  <act_conf>  (265) 
0

$$$$
MOL00011394-000759-04
     RDKit          3D

 32 35  0  0  0  0  0  0  0  0999 V2000
   -2.2694    3.8776    0.3309 C   0  0  0  0  0  0  0  0  0  0  0  0
   -2.9772    3.3990   -0.9030 C   0  0  0  0  0  0  0  0  0  0  0  0
   -3.4663    4.3376   -1.8115 C   0  0  0  0  0  0  0  0  0  0  0  0
   -4.1324    4.0336   -2.9460 N   0  0  0  0  0  0  0  0  0  0  0  0
   -4.3334    2.7264   -3.1939 C   0  0  0  0  0  0  0  0  0  0  0  0
   -3.8797    1.7120   -2.3694 C   0  0  0  0  0  0  0  0  0  0  0  0
   -3.1678    2.0354   -1.2032 C   0  0  0  0  0  0  0  0  0  0  0  0
   -2.6654    0.9437   -0.3556 C   0  0  0  0  0  0  0  0  0  0  0  0
   -1.3266    0.7754   -0.0854 C   0  0  0  0  0  0  0  0  0  0  0  0
   -0.9894   -0.2981    0.7075 C   0  0  0  0  0  0  0  0  0  0  0  0
    0.3530   -0.5608    1.0355 N   0  0  0  0  0  0  0  0  0  0  0  0
    1.2836    0.4318    1.1952 N   0  0  0  0  0  0  0  0  0  0  0  0
    2.6145    0.2859    0.7496 C   0  0  0  0  0  0  0  0  0  0  0  0
    3.5882    1.1964    1.1687 C   0  0  0  0  0  0  0  0  0  0  0  0
    4.9014    1.1147    0.6881 C   0  0  0  0  0  0  0  0  0  0  0  0
    5.2787    0.1367   -0.2469 C   0  0  0  0  0  0  0  0  0  0  0  0
    6.6753    0.1051   -0.7200 C   0  0  0  0  0  0  0  0  0  0  0  0
    7.6430    0.8616   -0.2335 N   0  0  0  0  0  0  0  0  0  0  0  0
    8.8560    0.6433   -0.8535 N   0  0  0  0  0  0  0  0  0  0  0  0
    8.7794   -0.2652   -1.7964 C   0  0  0  0  0  0  0  0  0  0  0  0
    9.8141   -0.6593   -2.5639 N   0  0  0  0  0  0  0  0  0  0  0  0
    7.2080   -0.9194   -2.0000 S   0  0  0  0  0  0  0  0  0  0  0  0
    4.2896   -0.7563   -0.6849 C   0  0  0  0  0  0  0  0  0  0  0  0
    2.9760   -0.6733   -0.2009 C   0  0  0  0  0  0  0  0  0  0  0  0
   -1.9066   -1.1548    1.1801 N   0  0  0  0  0  0  0  0  0  0  0  0
   -3.1855   -0.9222    0.8703 C   0  0  0  0  0  0  0  0  0  0  0  0
   -4.1914   -1.7544    1.3466 N   0  0  0  0  0  0  0  0  0  0  0  0
   -3.8460   -3.1798    1.4162 C   0  0  2  0  0  0  0  0  0  0  0  0
   -5.1262   -3.9918    1.1901 C   0  0  0  0  0  0  0  0  0  0  0  0
   -3.2502   -3.5037    2.8023 C   0  0  0  0  0  0  0  0  0  0  0  0
   -4.1123   -3.0311    3.8395 O   0  0  0  0  0  0  0  0  0  0  0  0
   -3.6014    0.0923    0.1098 N   0  0  0  0  0  0  0  0  0  0  0  0
  1  2  1  0
  2  3  2  0
  3  4  1  0
  4  5  2  0
  5  6  1  0
  6  7  2  0
  7  8  1  0
  8  9  2  0
  9 10  1  0
 10 11  1  0
 11 12  1  0
 12 13  1  0
 13 14  2  0
 14 15  1  0
 15 16  2  0
 16 17  1  0
 17 18  2  0
 18 19  1  0
 19 20  2  0
 20 21  1  0
 20 22  1  0
 16 23  1  0
 23 24  2  0
 10 25  2  0
 25 26  1  0
 26 27  1  0
 27 28  1  0
 28 29  1  1
 28 30  1  0
 30 31  1  0
 26 32  2  0
  7  2  1  0
 32  8  1  0
 24 13  1  0
 22 17  1  0
M  END
>  <energy>  (266) 
-61.20

>  <full_id>  (266) 
MOL00011394-000759-04_1

>  <mol_id>  (266) 
MOL00011394-000759-04

>  <act_mol>  (266) 
0

>  <act_conf>  (266) 
0

$$$$
MOL00011371-000030-04
     RDKit          3D

 36 40  0  0  0  0  0  0  0  0999 V2000
   -1.1518    0.2022    2.2372 C   0  0  0  0  0  0  0  0  0  0  0  0
   -1.9496    0.4868    0.9913 C   0  0  0  0  0  0  0  0  0  0  0  0
   -3.2434   -0.0629    0.8870 C   0  0  0  0  0  0  0  0  0  0  0  0
   -4.0475    0.1451   -0.2451 C   0  0  0  0  0  0  0  0  0  0  0  0
   -5.3901   -0.4492   -0.3640 C   0  0  0  0  0  0  0  0  0  0  0  0
   -6.3713    0.4686   -0.6019 N   0  0  0  0  0  0  0  0  0  0  0  0
   -7.6511    0.0299   -0.6520 C   0  0  0  0  0  0  0  0  0  0  0  0
   -8.0140   -1.2932   -0.4804 C   0  0  0  0  0  0  0  0  0  0  0  0
   -9.3280   -1.6407   -0.5374 O   0  0  0  0  0  0  0  0  0  0  0  0
   -7.0180   -2.2309   -0.2618 C   0  0  0  0  0  0  0  0  0  0  0  0
   -5.6793   -1.8125   -0.2214 C   0  0  0  0  0  0  0  0  0  0  0  0
   -4.6645   -2.8718   -0.0341 C   0  0  0  0  0  0  0  0  0  0  0  0
   -3.5382   -2.8256   -0.8035 N   0  0  0  0  0  0  0  0  0  0  0  0
   -4.8652   -3.7955    0.7461 O   0  0  0  0  0  0  0  0  0  0  0  0
   -3.5350    0.9550   -1.2653 C   0  0  0  0  0  0  0  0  0  0  0  0
   -2.2516    1.5068   -1.1787 C   0  0  0  0  0  0  0  0  0  0  0  0
   -1.4446    1.2765   -0.0620 C   0  0  0  0  0  0  0  0  0  0  0  0
   -0.1440    1.8054    0.0525 N   0  0  0  0  0  0  0  0  0  0  0  0
    0.5796    2.5583   -0.8637 C   0  0  0  0  0  0  0  0  0  0  0  0
    0.2031    2.8976   -1.9834 O   0  0  0  0  0  0  0  0  0  0  0  0
    2.0142    2.8713   -0.3518 C   0  0  2  0  0  0  0  0  0  0  0  0
    2.5818    4.1318   -0.9909 C   0  0  0  0  0  0  0  0  0  0  0  0
    2.8950    1.6761   -0.5785 C   0  0  0  0  0  0  0  0  0  0  0  0
    3.2182    1.1649    0.6109 C   0  0  0  0  0  0  0  0  0  0  0  0
    4.0747    0.0086    0.8945 C   0  0  0  0  0  0  0  0  0  0  0  0
    3.8337   -0.7872    2.0265 C   0  0  0  0  0  0  0  0  0  0  0  0
    4.6282   -1.8991    2.3379 C   0  0  0  0  0  0  0  0  0  0  0  0
    5.6848   -2.1835    1.4712 C   0  0  0  0  0  0  0  0  0  0  0  0
    6.6286   -3.1759    1.4758 N   0  0  0  0  0  0  0  0  0  0  0  0
    7.5056   -3.1087    0.4610 N   0  0  0  0  0  0  0  0  0  0  0  0
    7.1033   -2.0498   -0.2351 C   0  0  0  0  0  0  0  0  0  0  0  0
    7.7247   -1.6310   -1.3480 N   0  0  0  0  0  0  0  0  0  0  0  0
    5.9684   -1.4221    0.3442 C   0  0  0  0  0  0  0  0  0  0  0  0
    5.1531   -0.3106    0.0487 C   0  0  0  0  0  0  0  0  0  0  0  0
    2.6072    1.8881    1.6166 N   0  0  0  0  0  0  0  0  0  0  0  0
    2.0019    3.0570    1.0953 O   0  0  0  0  0  0  0  0  0  0  0  0
  1  2  1  0
  2  3  2  0
  3  4  1  0
  4  5  1  0
  5  6  2  0
  6  7  1  0
  7  8  2  0
  8  9  1  0
  8 10  1  0
 10 11  2  0
 11 12  1  0
 12 13  1  0
 12 14  2  0
  4 15  2  0
 15 16  1  0
 16 17  2  0
 17 18  1  0
 18 19  1  0
 19 20  2  0
 19 21  1  0
 21 22  1  6
 21 23  1  0
 23 24  2  0
 24 25  1  0
 25 26  2  0
 26 27  1  0
 27 28  2  0
 28 29  1  0
 29 30  1  0
 30 31  2  0
 31 32  1  0
 31 33  1  0
 33 34  2  0
 24 35  1  0
 35 36  1  0
 17  2  1  0
 36 21  1  0
 11  5  1  0
 34 25  1  0
 33 28  1  0
M  END
>  <energy>  (267) 
66.54

>  <full_id>  (267) 
MOL00011371-000030-04_1

>  <mol_id>  (267) 
MOL00011371-000030-04

>  <act_mol>  (267) 
0

>  <act_conf>  (267) 
0

$$$$
MOL00011393-001657-02
     RDKit          3D

 33 34  0  0  0  0  0  0  0  0999 V2000
   -8.2756    1.4805   -2.3654 C   0  0  0  0  0  0  0  0  0  0  0  0
   -7.2312    1.3787   -1.2665 C   0  0  0  0  0  0  0  0  0  0  0  0
   -6.2912    2.5845   -1.2749 C   0  0  0  0  0  0  0  0  0  0  0  0
   -5.2968    2.4972   -0.2037 N   0  0  0  0  0  0  0  0  0  0  0  0
   -5.6327    3.1388    1.0710 C   0  0  0  0  0  0  0  0  0  0  0  0
   -5.2661    4.6236    1.0700 C   0  0  0  0  0  0  0  0  0  0  0  0
   -5.5333    5.2643    2.4219 C   0  0  0  0  0  0  0  0  0  0  0  0
   -4.1036    1.8269   -0.4663 C   0  0  0  0  0  0  0  0  0  0  0  0
   -3.8719    1.3174   -1.5635 O   0  0  0  0  0  0  0  0  0  0  0  0
   -3.0986    1.7382    0.6738 C   0  0  0  0  0  0  0  0  0  0  0  0
   -1.7768    1.0764    0.2847 C   0  0  0  0  0  0  0  0  0  0  0  0
   -1.9108   -0.4304    0.0596 C   0  0  0  0  0  0  0  0  0  0  0  0
   -0.6105   -1.0567   -0.0632 N   0  0  0  0  0  0  0  0  0  0  0  0
    0.1033   -1.4494    1.0374 C   0  0  0  0  0  0  0  0  0  0  0  0
   -0.2613   -1.2834    2.1924 O   0  0  0  0  0  0  0  0  0  0  0  0
    1.2785   -2.0558    0.6708 N   0  0  0  0  0  0  0  0  0  0  0  0
    2.2663   -2.3839    1.6891 C   0  0  2  0  0  0  0  0  0  0  0  0
    3.5480   -3.0347    1.0452 C   0  0  1  0  0  0  0  0  0  0  0  0
    4.6856   -2.1351    0.9797 N   0  0  0  0  0  0  0  0  0  0  0  0
    4.6401   -1.0864    0.0960 C   0  0  0  0  0  0  0  0  0  0  0  0
    3.7349   -0.9020   -0.7072 O   0  0  0  0  0  0  0  0  0  0  0  0
    5.7347   -0.2750    0.2382 N   0  0  0  0  0  0  0  0  0  0  0  0
    5.9438    0.8002   -0.7227 C   0  0  0  0  0  0  0  0  0  0  0  0
    6.7159    0.2837   -1.9293 C   0  0  0  0  0  0  0  0  0  0  0  0
    7.4425   -0.7051   -1.9119 O   0  0  0  0  0  0  0  0  0  0  0  0
    6.5374    1.1105   -2.9966 O   0  0  0  0  0  0  0  0  0  0  0  0
    7.2356    0.7019   -4.1786 C   0  0  0  0  0  0  0  0  0  0  0  0
    6.8886    1.6696   -5.2933 C   0  0  0  0  0  0  0  0  0  0  0  0
    3.7597   -4.3038    1.9064 C   0  0  1  0  0  0  0  0  0  0  0  0
    4.0090   -3.9212    3.3500 C   0  0  0  0  0  0  0  0  0  0  0  0
    2.8535   -3.4427    3.8383 C   0  0  0  0  0  0  0  0  0  0  0  0
    1.8362   -3.4786    2.7110 C   0  0  2  0  0  0  0  0  0  0  0  0
    2.3039   -4.7726    2.0333 C   0  0  0  0  0  0  0  0  0  0  0  0
  1  2  1  0
  2  3  1  0
  3  4  1  0
  4  5  1  0
  5  6  1  0
  6  7  1  0
  4  8  1  0
  8  9  2  0
  8 10  1  0
 10 11  1  0
 11 12  1  0
 12 13  1  0
 13 14  1  0
 14 15  2  0
 14 16  1  0
 17 16  1  6
 17 18  1  0
 18 19  1  1
 19 20  1  0
 20 21  2  0
 20 22  1  0
 22 23  1  0
 23 24  1  0
 24 25  2  0
 24 26  1  0
 26 27  1  0
 27 28  1  0
 18 29  1  0
 29 30  1  1
 30 31  2  0
 32 31  1  1
 32 33  1  0
 32 17  1  0
 33 29  1  0
M  END
>  <energy>  (268) 
-138.54

>  <full_id>  (268) 
MOL00011393-001657-02_1

>  <mol_id>  (268) 
MOL00011393-001657-02

>  <act_mol>  (268) 
0

>  <act_conf>  (268) 
0

$$$$
MOL00011534-000001-02
     RDKit          3D

 23 26  0  0  0  0  0  0  0  0999 V2000
    2.2932   -0.8043   -2.9343 C   0  0  0  0  0  0  0  0  0  0  0  0
    2.6963   -0.4197   -1.5377 C   0  0  0  0  0  0  0  0  0  0  0  0
    4.0555   -0.4479   -1.1799 C   0  0  0  0  0  0  0  0  0  0  0  0
    4.4760   -0.1019    0.1126 C   0  0  0  0  0  0  0  0  0  0  0  0
    5.9384   -0.1048    0.4671 C   0  0  0  0  0  0  0  0  0  0  0  0
    6.4985    1.1892    0.2907 O   0  0  0  0  0  0  0  0  0  0  0  0
    3.5229    0.3002    1.0557 C   0  0  0  0  0  0  0  0  0  0  0  0
    2.1671    0.3328    0.7172 C   0  0  0  0  0  0  0  0  0  0  0  0
    1.7431   -0.0306   -0.5795 C   0  0  0  0  0  0  0  0  0  0  0  0
    0.3689    0.0183   -0.8765 N   0  0  0  0  0  0  0  0  0  0  0  0
   -0.6195    0.3538    0.0364 C   0  0  0  0  0  0  0  0  0  0  0  0
   -1.9330    0.3260   -0.2672 C   0  0  0  0  0  0  0  0  0  0  0  0
   -2.4145   -0.0108   -1.6554 C   0  0  0  0  0  0  0  0  0  0  0  0
   -1.7186   -0.2878   -2.6179 O   0  0  0  0  0  0  0  0  0  0  0  0
   -3.7914    0.0208   -1.6319 N   0  0  0  0  0  0  0  0  0  0  0  0
   -4.2963    0.2418   -0.3890 C   0  0  0  0  0  0  0  0  0  0  0  0
   -5.5496    0.0015    0.0076 C   0  0  0  0  0  0  0  0  0  0  0  0
   -5.8397    0.0172    1.4257 C   0  0  0  0  0  0  0  0  0  0  0  0
   -4.8427   -0.0780    2.3238 C   0  0  0  0  0  0  0  0  0  0  0  0
   -3.3837   -0.0883    1.9048 C   0  0  0  0  0  0  0  0  0  0  0  0
   -3.1722    0.6192    0.5495 C   0  0  1  0  0  0  0  0  0  0  0  0
   -0.1451    0.7700    1.3566 C   0  0  0  0  0  0  0  0  0  0  0  0
    1.1561    0.7625    1.6925 C   0  0  0  0  0  0  0  0  0  0  0  0
  1  2  1  0
  2  3  2  0
  3  4  1  0
  4  5  1  0
  5  6  1  0
  4  7  2  0
  7  8  1  0
  8  9  2  0
  9 10  1  0
 10 11  1  0
 11 12  2  0
 12 13  1  0
 13 14  2  0
 13 15  1  0
 15 16  1  0
 16 17  2  0
 17 18  1  0
 18 19  2  0
 19 20  1  0
 21 20  1  1
 11 22  1  0
 22 23  2  0
  9  2  1  0
 21 12  1  0
 23  8  1  0
 21 16  1  0
M  END
>  <energy>  (269) 
36.00

>  <full_id>  (269) 
MOL00011534-000001-02_1

>  <mol_id>  (269) 
MOL00011534-000001-02

>  <act_mol>  (269) 
0

>  <act_conf>  (269) 
0

$$$$
MOL00011815-001005-04
     RDKit          3D

 22 22  0  0  0  0  0  0  0  0999 V2000
    6.2793   -0.5877   -0.2492 C   0  0  0  0  0  0  0  0  0  0  0  0
    5.3058   -1.1676    0.4698 C   0  0  0  0  0  0  0  0  0  0  0  0
    5.5852   -2.4366    1.2342 C   0  0  0  0  0  0  0  0  0  0  0  0
    4.0258   -0.6597    0.5875 N   0  0  0  0  0  0  0  0  0  0  0  0
    3.5186    0.1664   -0.4298 O   0  0  0  0  0  0  0  0  0  0  0  0
    2.1571    0.0627   -0.5566 C   0  0  0  0  0  0  0  0  0  0  0  0
    1.4580   -0.6887    0.1152 O   0  0  0  0  0  0  0  0  0  0  0  0
    1.7072    0.8873   -1.5457 N   0  0  0  0  0  0  0  0  0  0  0  0
    0.3090    1.0818   -1.8591 C   0  0  0  0  0  0  0  0  0  0  0  0
   -0.1829    0.1621   -2.9782 C   0  0  0  0  0  0  0  0  0  0  0  0
   -0.3448   -1.3071   -2.5886 C   0  0  0  0  0  0  0  0  0  0  0  0
   -1.5148   -1.5067   -1.6484 C   0  0  0  0  0  0  0  0  0  0  0  0
   -2.6660   -1.6097   -2.0632 O   0  0  0  0  0  0  0  0  0  0  0  0
   -1.1755   -1.5173   -0.3211 N   0  0  0  0  0  0  0  0  0  0  0  0
   -2.1587   -1.4895    0.7310 C   0  0  0  0  0  0  0  0  0  0  0  0
   -2.2502   -0.0825    1.2224 C   0  0  0  0  0  0  0  0  0  0  0  0
   -1.4871    0.5351    2.1973 C   0  0  0  0  0  0  0  0  0  0  0  0
   -1.9064    1.8773    2.2929 C   0  0  0  0  0  0  0  0  0  0  0  0
   -2.9170    2.0687    1.3728 C   0  0  0  0  0  0  0  0  0  0  0  0
   -3.6743    3.3120    1.0649 C   0  0  0  0  0  0  0  0  0  0  0  0
   -3.1342    0.8619    0.7355 N   0  0  0  0  0  0  0  0  0  0  0  0
   -4.1140    0.6431   -0.3107 C   0  0  0  0  0  0  0  0  0  0  0  0
  1  2  2  0
  2  3  1  0
  2  4  1  0
  4  5  1  0
  5  6  1  0
  6  7  2  0
  6  8  1  0
  8  9  1  0
  9 10  1  0
 10 11  1  0
 11 12  1  0
 12 13  2  0
 12 14  1  0
 14 15  1  0
 15 16  1  0
 16 17  2  0
 17 18  1  0
 18 19  2  0
 19 20  1  0
 19 21  1  0
 21 22  1  0
 21 16  1  0
M  END
>  <energy>  (270) 
-53.65

>  <full_id>  (270) 
MOL00011815-001005-04_1

>  <mol_id>  (270) 
MOL00011815-001005-04

>  <act_mol>  (270) 
0

>  <act_conf>  (270) 
0

$$$$
MOL00011729-000213-02
     RDKit          3D

 28 30  0  0  0  0  0  0  0  0999 V2000
   -2.2962   -2.9598    3.1763 C   0  0  0  0  0  0  0  0  0  0  0  0
   -2.0106   -1.4661    3.1035 C   0  0  0  0  0  0  0  0  0  0  0  0
   -1.4243   -1.0408    1.7559 C   0  0  0  0  0  0  0  0  0  0  0  0
   -2.4188   -1.2177    0.7013 N   0  0  0  0  0  0  0  0  0  0  0  0
   -1.9971   -0.8644   -0.5986 C   0  0  0  0  0  0  0  0  0  0  0  0
   -0.7096   -0.5094   -0.7877 N   0  0  0  0  0  0  0  0  0  0  0  0
   -0.2915   -0.1898   -2.0201 C   0  0  0  0  0  0  0  0  0  0  0  0
    1.0211    0.1976   -2.2778 N   0  0  0  0  0  0  0  0  0  0  0  0
    2.1640    0.3453   -1.4866 C   0  0  0  0  0  0  0  0  0  0  0  0
    3.3516    0.7770   -2.0956 C   0  0  0  0  0  0  0  0  0  0  0  0
    4.5348    0.9545   -1.3639 C   0  0  0  0  0  0  0  0  0  0  0  0
    4.5611    0.7044    0.0083 C   0  0  0  0  0  0  0  0  0  0  0  0
    5.6638    0.8497    0.8060 O   0  0  0  0  0  0  0  0  0  0  0  0
    6.8756    1.2698    0.1943 C   0  0  0  0  0  0  0  0  0  0  0  0
    7.9853    1.3665    1.2251 C   0  0  0  0  0  0  0  0  0  0  0  0
    7.9302    1.1385    2.4216 O   0  0  0  0  0  0  0  0  0  0  0  0
    9.1542    1.7625    0.6708 O   0  0  0  0  0  0  0  0  0  0  0  0
    3.3790    0.2749    0.6253 C   0  0  0  0  0  0  0  0  0  0  0  0
    3.3092   -0.0906    2.4916 Br  0  0  0  0  0  0  0  0  0  0  0  0
    2.2004    0.0992   -0.1133 C   0  0  0  0  0  0  0  0  0  0  0  0
   -1.0912   -0.2093   -3.0951 N   0  0  0  0  0  0  0  0  0  0  0  0
   -2.3698   -0.5836   -2.8925 C   0  0  0  0  0  0  0  0  0  0  0  0
   -2.8948   -0.9255   -1.6623 C   0  0  0  0  0  0  0  0  0  0  0  0
   -4.2891   -1.3337   -1.5327 C   0  0  0  0  0  0  0  0  0  0  0  0
   -4.7896   -2.5187   -0.9017 C   0  0  0  0  0  0  0  0  0  0  0  0
   -6.1633   -2.6037   -0.9493 C   0  0  0  0  0  0  0  0  0  0  0  0
   -6.8602   -1.2633   -1.7478 S   0  0  0  0  0  0  0  0  0  0  0  0
   -5.3231   -0.5637   -2.0322 C   0  0  0  0  0  0  0  0  0  0  0  0
  1  2  1  0
  2  3  1  0
  3  4  1  0
  4  5  1  0
  5  6  2  0
  6  7  1  0
  7  8  1  0
  8  9  1  0
  9 10  2  0
 10 11  1  0
 11 12  2  0
 12 13  1  0
 13 14  1  0
 14 15  1  0
 15 16  2  0
 15 17  1  0
 12 18  1  0
 18 19  1  0
 18 20  2  0
  7 21  2  0
 21 22  1  0
 22 23  2  0
 23 24  1  0
 24 25  1  0
 25 26  2  0
 26 27  1  0
 27 28  1  0
 23  5  1  0
 28 24  2  0
 20  9  1  0
M  END
>  <energy>  (271) 
-32.53

>  <full_id>  (271) 
MOL00011729-000213-02_1

>  <mol_id>  (271) 
MOL00011729-000213-02

>  <act_mol>  (271) 
0

>  <act_conf>  (271) 
0

$$$$
MOL00011765-000561-02
     RDKit          3D

 34 37  0  0  0  0  0  0  0  0999 V2000
    3.4066   -0.0660   -3.0179 C   0  0  0  0  0  0  0  0  0  0  0  0
    4.2166    0.2204   -1.8585 N   0  0  0  0  0  0  0  0  0  0  0  0
    4.1045    1.2948   -1.0263 C   0  0  0  0  0  0  0  0  0  0  0  0
    5.0738    1.1404   -0.0558 C   0  0  0  0  0  0  0  0  0  0  0  0
    5.3421    2.0173    1.1197 C   0  0  0  0  0  0  0  0  0  0  0  0
    4.7804    1.4587    2.4255 C   0  0  0  0  0  0  0  0  0  0  0  0
    3.2694    1.6016    2.4976 C   0  0  0  0  0  0  0  0  0  0  0  0
    2.7657    2.5511    3.0885 O   0  0  0  0  0  0  0  0  0  0  0  0
    2.6017    0.5917    1.8307 N   0  0  0  0  0  0  0  0  0  0  0  0
    1.2120    0.4495    1.6363 C   0  0  0  0  0  0  0  0  0  0  0  0
    0.2501    1.3026    2.2209 C   0  0  0  0  0  0  0  0  0  0  0  0
   -1.1229    1.1213    1.9975 C   0  0  0  0  0  0  0  0  0  0  0  0
   -1.4975    0.0969    1.1645 C   0  0  0  0  0  0  0  0  0  0  0  0
   -0.5442   -0.7584    0.5740 C   0  0  0  0  0  0  0  0  0  0  0  0
    0.8022   -0.6115    0.8113 C   0  0  0  0  0  0  0  0  0  0  0  0
   -1.2324   -1.7461   -0.1459 N   0  0  0  0  0  0  0  0  0  0  0  0
   -2.5897   -1.3759   -0.1495 C   0  0  0  0  0  0  0  0  0  0  0  0
   -3.5417   -1.8676   -0.9820 C   0  0  0  0  0  0  0  0  0  0  0  0
   -3.1005   -2.8930   -1.9843 C   0  0  0  0  0  0  0  0  0  0  0  0
   -4.0526   -3.7080   -2.5104 N   0  0  0  0  0  0  0  0  0  0  0  0
   -1.9329   -3.0198   -2.3522 O   0  0  0  0  0  0  0  0  0  0  0  0
   -4.9415   -1.4004   -0.9153 C   0  0  0  0  0  0  0  0  0  0  0  0
   -5.9237   -2.2725   -1.2255 N   0  0  0  0  0  0  0  0  0  0  0  0
   -7.1902   -1.8230   -1.1464 C   0  0  0  0  0  0  0  0  0  0  0  0
   -7.5197   -0.5417   -0.7787 C   0  0  0  0  0  0  0  0  0  0  0  0
   -6.4648    0.2994   -0.4753 C   0  0  0  0  0  0  0  0  0  0  0  0
   -6.7566    1.7377   -0.0770 C   0  0  0  0  0  0  0  0  0  0  0  0
   -7.0184    2.5314   -1.1544 F   0  0  0  0  0  0  0  0  0  0  0  0
   -5.7341    2.3365    0.5969 F   0  0  0  0  0  0  0  0  0  0  0  0
   -7.8499    1.8449    0.7342 F   0  0  0  0  0  0  0  0  0  0  0  0
   -5.1722   -0.1200   -0.5506 N   0  0  0  0  0  0  0  0  0  0  0  0
   -2.7820   -0.3595    0.8105 N   0  0  0  0  0  0  0  0  0  0  0  0
    5.7348   -0.0545   -0.4210 C   0  0  0  0  0  0  0  0  0  0  0  0
    5.1956   -0.6283   -1.4975 N   0  0  0  0  0  0  0  0  0  0  0  0
  1  2  1  0
  2  3  1  0
  3  4  2  0
  4  5  1  0
  5  6  1  0
  6  7  1  0
  7  8  2  0
  7  9  1  0
  9 10  1  0
 10 11  2  0
 11 12  1  0
 12 13  2  0
 13 14  1  0
 14 15  2  0
 14 16  1  0
 16 17  1  0
 17 18  2  0
 18 19  1  0
 19 20  1  0
 19 21  2  0
 18 22  1  0
 22 23  2  0
 23 24  1  0
 24 25  2  0
 25 26  1  0
 26 27  1  0
 27 28  1  0
 27 29  1  0
 27 30  1  0
 26 31  2  0
 17 32  1  0
  4 33  1  0
 33 34  2  0
 34  2  1  0
 15 10  1  0
 31 22  1  0
 32 13  1  0
M  END
>  <energy>  (272) 
33.79

>  <full_id>  (272) 
MOL00011765-000561-02_1

>  <mol_id>  (272) 
MOL00011765-000561-02

>  <act_mol>  (272) 
0

>  <act_conf>  (272) 
0

$$$$
MOL00011881-004148-02
     RDKit          3D

 32 36  0  0  0  0  0  0  0  0999 V2000
    8.1702   -0.2334   -2.4148 C   0  0  0  0  0  0  0  0  0  0  0  0
    6.9609    0.0876   -1.5454 C   0  0  0  0  0  0  0  0  0  0  0  0
    7.1318   -0.3733   -0.1357 C   0  0  0  0  0  0  0  0  0  0  0  0
    8.2998   -0.6281    0.4272 N   0  0  0  0  0  0  0  0  0  0  0  0
    8.0831   -1.1721    1.6587 N   0  0  0  0  0  0  0  0  0  0  0  0
    6.7871   -1.2220    1.8403 C   0  0  0  0  0  0  0  0  0  0  0  0
    6.1161   -0.6923    0.7612 N   0  0  0  0  0  0  0  0  0  0  0  0
    4.7032   -0.5367    0.6627 C   0  0  0  0  0  0  0  0  0  0  0  0
    3.8564   -1.3195    1.4576 C   0  0  0  0  0  0  0  0  0  0  0  0
    2.4649   -1.1720    1.3727 C   0  0  0  0  0  0  0  0  0  0  0  0
    1.8744   -0.2377    0.5105 C   0  0  0  0  0  0  0  0  0  0  0  0
    0.4797   -0.1492    0.4734 N   0  0  0  0  0  0  0  0  0  0  0  0
   -0.4245    0.6470   -0.2272 C   0  0  0  0  0  0  0  0  0  0  0  0
   -0.0259    1.5606   -1.0918 N   0  0  0  0  0  0  0  0  0  0  0  0
   -1.0060    2.2423   -1.6639 C   0  0  0  0  0  0  0  0  0  0  0  0
   -0.6462    3.1865   -2.5464 F   0  0  0  0  0  0  0  0  0  0  0  0
   -2.3058    2.0899   -1.4548 N   0  0  0  0  0  0  0  0  0  0  0  0
   -2.6121    1.1431   -0.5857 C   0  0  0  0  0  0  0  0  0  0  0  0
   -3.9736    0.9875   -0.3351 N   0  0  0  0  0  0  0  0  0  0  0  0
   -4.7372   -0.0276    0.2787 C   0  0  0  0  0  0  0  0  0  0  0  0
   -4.1796   -1.2815    0.5742 C   0  0  0  0  0  0  0  0  0  0  0  0
   -4.9269   -2.2813    1.1920 C   0  0  0  0  0  0  0  0  0  0  0  0
   -6.2495   -2.0415    1.5439 C   0  0  0  0  0  0  0  0  0  0  0  0
   -6.8399   -0.7964    1.2975 C   0  0  0  0  0  0  0  0  0  0  0  0
   -8.1734   -0.5717    1.6790 C   0  0  0  0  0  0  0  0  0  0  0  0
   -8.7833    0.6624    1.4671 C   0  0  0  0  0  0  0  0  0  0  0  0
   -8.0642    1.6908    0.8761 C   0  0  0  0  0  0  0  0  0  0  0  0
   -6.7377    1.4810    0.4880 C   0  0  0  0  0  0  0  0  0  0  0  0
   -6.0885    0.2345    0.6730 C   0  0  0  0  0  0  0  0  0  0  0  0
   -1.7028    0.4094    0.0477 N   0  0  0  0  0  0  0  0  0  0  0  0
    2.7309    0.5459   -0.2645 C   0  0  0  0  0  0  0  0  0  0  0  0
    4.1262    0.4056   -0.1909 C   0  0  0  0  0  0  0  0  0  0  0  0
  1  2  1  0
  2  3  1  0
  3  4  2  0
  4  5  1  0
  5  6  2  0
  6  7  1  0
  7  8  1  0
  8  9  2  0
  9 10  1  0
 10 11  2  0
 11 12  1  0
 12 13  1  0
 13 14  2  0
 14 15  1  0
 15 16  1  0
 15 17  2  0
 17 18  1  0
 18 19  1  0
 19 20  1  0
 20 21  2  0
 21 22  1  0
 22 23  2  0
 23 24  1  0
 24 25  2  0
 25 26  1  0
 26 27  2  0
 27 28  1  0
 28 29  2  0
 18 30  2  0
 11 31  1  0
 31 32  2  0
  7  3  1  0
 32  8  1  0
 30 13  1  0
 29 20  1  0
 29 24  1  0
M  END
>  <energy>  (273) 
-124.91

>  <full_id>  (273) 
MOL00011881-004148-02_1

>  <mol_id>  (273) 
MOL00011881-004148-02

>  <act_mol>  (273) 
0

>  <act_conf>  (273) 
0

$$$$
MOL00011789-000736-03
     RDKit          3D

 33 35  0  0  0  0  0  0  0  0999 V2000
    2.9106   -3.0414   -4.5782 C   0  0  0  0  0  0  0  0  0  0  0  0
    2.7889   -2.0840   -3.5334 O   0  0  0  0  0  0  0  0  0  0  0  0
    1.5687   -1.4889   -3.3553 C   0  0  0  0  0  0  0  0  0  0  0  0
    0.4573   -1.7032   -4.1780 C   0  0  0  0  0  0  0  0  0  0  0  0
   -0.7491   -1.0391   -3.9330 C   0  0  0  0  0  0  0  0  0  0  0  0
   -0.8641   -0.1523   -2.8599 C   0  0  0  0  0  0  0  0  0  0  0  0
   -2.1663    0.5345   -2.6435 C   0  0  0  0  0  0  0  0  0  0  0  0
   -2.9835    0.6416   -3.5558 O   0  0  0  0  0  0  0  0  0  0  0  0
   -2.4167    1.0065   -1.3674 N   0  0  0  0  0  0  0  0  0  0  0  0
   -3.7350    1.4270   -1.1016 N   0  0  0  0  0  0  0  0  0  0  0  0
   -4.2993    0.9957    0.0844 C   0  0  0  0  0  0  0  0  0  0  0  0
   -3.6464    0.4316    0.9639 O   0  0  0  0  0  0  0  0  0  0  0  0
   -5.7641    1.1947    0.2600 C   0  0  0  0  0  0  0  0  0  0  0  0
   -6.4827    2.1088   -0.5263 C   0  0  0  0  0  0  0  0  0  0  0  0
   -7.8612    2.2612   -0.3470 C   0  0  0  0  0  0  0  0  0  0  0  0
   -8.5302    1.5106    0.6188 C   0  0  0  0  0  0  0  0  0  0  0  0
   -7.8224    0.6140    1.4176 C   0  0  0  0  0  0  0  0  0  0  0  0
   -6.4473    0.4643    1.2453 C   0  0  0  0  0  0  0  0  0  0  0  0
   -5.8305   -0.4249    2.0861 O   0  0  0  0  0  0  0  0  0  0  0  0
    0.2472    0.0783   -2.0442 C   0  0  0  0  0  0  0  0  0  0  0  0
    1.4661   -0.5973   -2.2708 C   0  0  0  0  0  0  0  0  0  0  0  0
    2.6495   -0.2940   -1.3703 C   0  0  0  0  0  0  0  0  0  0  0  0
    2.2379   -0.4031    0.0298 N   0  0  0  0  0  0  0  0  0  0  0  0
    3.1736   -0.1493    1.0417 C   0  0  0  0  0  0  0  0  0  0  0  0
    4.3072    0.6571    0.8705 C   0  0  0  0  0  0  0  0  0  0  0  0
    5.1662    0.9348    1.9394 C   0  0  0  0  0  0  0  0  0  0  0  0
    4.8828    0.4158    3.1973 C   0  0  0  0  0  0  0  0  0  0  0  0
    5.7253    0.7583    4.2580 O   0  0  0  0  0  0  0  0  0  0  0  0
    6.4605   -0.2960    4.7636 C   0  0  0  0  0  0  0  0  0  0  0  0
    7.2323    0.1283    5.7966 N   0  0  0  0  0  0  0  0  0  0  0  0
    6.4593   -1.4579    4.3843 O   0  0  0  0  0  0  0  0  0  0  0  0
    3.7340   -0.3356    3.4150 C   0  0  0  0  0  0  0  0  0  0  0  0
    2.8848   -0.6070    2.3389 C   0  0  0  0  0  0  0  0  0  0  0  0
  1  2  1  0
  2  3  1  0
  3  4  2  0
  4  5  1  0
  5  6  2  0
  6  7  1  0
  7  8  2  0
  7  9  1  0
  9 10  1  0
 10 11  1  0
 11 12  2  0
 11 13  1  0
 13 14  2  0
 14 15  1  0
 15 16  2  0
 16 17  1  0
 17 18  2  0
 18 19  1  0
  6 20  1  0
 20 21  2  0
 21 22  1  0
 22 23  1  0
 23 24  1  0
 24 25  2  0
 25 26  1  0
 26 27  2  0
 27 28  1  0
 28 29  1  0
 29 30  1  0
 29 31  2  0
 27 32  1  0
 32 33  2  0
 21  3  1  0
 33 24  1  0
 18 13  1  0
M  END
>  <energy>  (274) 
50.23

>  <full_id>  (274) 
MOL00011789-000736-03_1

>  <mol_id>  (274) 
MOL00011789-000736-03

>  <act_mol>  (274) 
0

>  <act_conf>  (274) 
0

$$$$
MOL00011914-000111-03
     RDKit          3D

 26 28  0  0  0  0  0  0  0  0999 V2000
   -7.6315    2.1529    1.3080 C   0  0  0  0  0  0  0  0  0  0  0  0
   -6.2402    1.8099    1.8040 C   0  0  0  0  0  0  0  0  0  0  0  0
   -5.4576    1.3901    0.6790 O   0  0  0  0  0  0  0  0  0  0  0  0
   -4.1693    1.0345    0.9755 C   0  0  0  0  0  0  0  0  0  0  0  0
   -3.7419    1.0837    2.1223 O   0  0  0  0  0  0  0  0  0  0  0  0
   -3.4693    0.6317   -0.1627 N   0  0  0  0  0  0  0  0  0  0  0  0
   -4.1403    0.6238   -1.4657 C   0  0  0  0  0  0  0  0  0  0  0  0
   -3.1471    0.7646   -2.6032 C   0  0  0  0  0  0  0  0  0  0  0  0
   -2.2049   -0.3052   -2.5856 O   0  0  0  0  0  0  0  0  0  0  0  0
   -1.5927   -0.4172   -1.3583 C   0  0  0  0  0  0  0  0  0  0  0  0
   -0.3498   -1.0595   -1.3884 C   0  0  0  0  0  0  0  0  0  0  0  0
    0.3877   -1.2347   -0.2152 C   0  0  0  0  0  0  0  0  0  0  0  0
    1.7377   -1.8936   -0.2516 C   0  0  0  0  0  0  0  0  0  0  0  0
    2.7694   -0.9407   -0.5589 N   0  0  0  0  0  0  0  0  0  0  0  0
    4.0642   -1.3262   -0.8031 C   0  0  0  0  0  0  0  0  0  0  0  0
    4.4163   -2.4994   -0.8860 O   0  0  0  0  0  0  0  0  0  0  0  0
    4.9814   -0.2140   -0.9438 C   0  0  0  0  0  0  0  0  0  0  0  0
    4.6512    1.0600   -0.8213 N   0  0  0  0  0  0  0  0  0  0  0  0
    5.8139    1.7633   -1.0242 C   0  0  0  0  0  0  0  0  0  0  0  0
    5.8710    3.4616   -0.9594 Cl  0  0  0  0  0  0  0  0  0  0  0  0
    6.8681    0.9080   -1.2730 C   0  0  0  0  0  0  0  0  0  0  0  0
    8.3005    1.1524   -1.5471 C   0  0  0  0  0  0  0  0  0  0  0  0
    6.3189   -0.3473   -1.2154 N   0  0  0  0  0  0  0  0  0  0  0  0
   -0.1380   -0.7404    0.9813 C   0  0  0  0  0  0  0  0  0  0  0  0
   -1.3930   -0.1147    1.0126 C   0  0  0  0  0  0  0  0  0  0  0  0
   -2.1557    0.0470   -0.1504 C   0  0  0  0  0  0  0  0  0  0  0  0
  1  2  1  0
  2  3  1  0
  3  4  1  0
  4  5  2  0
  4  6  1  0
  6  7  1  0
  7  8  1  0
  8  9  1  0
  9 10  1  0
 10 11  2  0
 11 12  1  0
 12 13  1  0
 13 14  1  0
 14 15  1  0
 15 16  2  0
 15 17  1  0
 17 18  2  0
 18 19  1  0
 19 20  1  0
 19 21  2  0
 21 22  1  0
 21 23  1  0
 12 24  2  0
 24 25  1  0
 25 26  2  0
 26  6  1  0
 26 10  1  0
 23 17  1  0
M  END
>  <energy>  (275) 
-21.55

>  <full_id>  (275) 
MOL00011914-000111-03_1

>  <mol_id>  (275) 
MOL00011914-000111-03

>  <act_mol>  (275) 
0

>  <act_conf>  (275) 
0

$$$$
MOL00011892-000334-04
     RDKit          3D

 28 28  0  0  0  0  0  0  0  0999 V2000
   -6.3994    4.1656    3.0742 C   0  0  0  0  0  0  0  0  0  0  0  0
   -5.4030    3.9858    2.4285 C   0  0  0  0  0  0  0  0  0  0  0  0
   -4.1781    3.7720    1.6358 C   0  0  0  0  0  0  0  0  0  0  0  0
   -3.6922    2.3167    1.7136 C   0  0  1  0  0  0  0  0  0  0  0  0
   -4.6576    1.3901    1.1033 N   0  0  0  0  0  0  0  0  0  0  0  0
   -4.7036    0.0606    1.4352 C   0  0  0  0  0  0  0  0  0  0  0  0
   -5.7753   -0.7297    0.7372 C   0  0  0  0  0  0  0  0  0  0  0  0
   -3.9019   -0.4517    2.2129 O   0  0  0  0  0  0  0  0  0  0  0  0
   -2.3231    2.1781    1.0061 C   0  0  0  0  0  0  0  0  0  0  0  0
   -1.8712    3.0672    0.2897 O   0  0  0  0  0  0  0  0  0  0  0  0
   -1.7112    0.9620    1.2704 N   0  0  0  0  0  0  0  0  0  0  0  0
   -0.4593    0.5046    0.8207 C   0  0  0  0  0  0  0  0  0  0  0  0
   -0.0991   -0.8067    1.1634 C   0  0  0  0  0  0  0  0  0  0  0  0
    1.1328   -1.3727    0.7706 C   0  0  0  0  0  0  0  0  0  0  0  0
    1.4245   -2.7806    1.2088 C   0  0  0  0  0  0  0  0  0  0  0  0
    2.0073   -0.5849    0.0015 C   0  0  0  0  0  0  0  0  0  0  0  0
    3.5961   -1.1339   -0.5831 S   0  0  0  0  0  6  0  0  0  0  0  0
    3.7332   -2.5492   -0.2935 O   0  0  0  0  0  0  0  0  0  0  0  0
    4.5806   -0.1969   -0.0774 O   0  0  0  0  0  0  0  0  0  0  0  0
    3.5102   -0.9919   -2.3594 C   0  0  0  0  0  0  0  0  0  0  0  0
    4.8553   -1.2109   -3.0572 C   0  0  0  0  0  0  0  0  0  0  0  0
    5.4752   -2.6040   -2.9255 C   0  0  0  0  0  0  0  0  0  0  0  0
    4.6488   -3.6895   -3.5611 C   0  0  0  0  0  0  0  0  0  0  0  0
    3.5812   -3.5623   -4.1359 O   0  0  0  0  0  0  0  0  0  0  0  0
    5.2316   -4.8982   -3.4500 O   0  0  0  0  0  0  0  0  0  0  0  0
    1.6500    0.7262   -0.3207 C   0  0  0  0  0  0  0  0  0  0  0  0
    2.4725    1.5062   -1.0361 F   0  0  0  0  0  0  0  0  0  0  0  0
    0.4304    1.2703    0.0777 C   0  0  0  0  0  0  0  0  0  0  0  0
  1  2  3  0
  2  3  1  0
  4  3  1  6
  4  5  1  0
  5  6  1  0
  6  7  1  0
  6  8  2  0
  4  9  1  0
  9 10  2  0
  9 11  1  0
 11 12  1  0
 12 13  2  0
 13 14  1  0
 14 15  1  0
 14 16  2  0
 16 17  1  0
 17 18  2  0
 17 19  2  0
 17 20  1  0
 20 21  1  0
 21 22  1  0
 22 23  1  0
 23 24  2  0
 23 25  1  0
 16 26  1  0
 26 27  1  0
 26 28  2  0
 28 12  1  0
M  END
>  <energy>  (276) 
-13.41

>  <full_id>  (276) 
MOL00011892-000334-04_1

>  <mol_id>  (276) 
MOL00011892-000334-04

>  <act_mol>  (276) 
0

>  <act_conf>  (276) 
0

$$$$
MOL00012000-000022-02
     RDKit          3D

 25 28  0  0  0  0  0  0  0  0999 V2000
   -2.8585   -0.9736   -2.8344 C   0  0  0  0  0  0  0  0  0  0  0  0
   -2.7088   -1.4559   -1.3791 C   0  0  0  0  0  0  0  0  0  0  0  0
   -2.7325   -2.9957   -1.3451 C   0  0  0  0  0  0  0  0  0  0  0  0
   -1.3380   -1.0721   -0.9739 N   0  0  0  0  0  0  0  0  0  0  0  0
   -1.1820   -0.3032    0.0543 C   0  0  0  0  0  0  0  0  0  0  0  0
    0.1948    0.0264    0.3839 C   0  0  0  0  0  0  0  0  0  0  0  0
    0.5451    0.7948    1.3983 N   0  0  0  0  0  0  0  0  0  0  0  0
    1.9166    0.8506    1.3453 C   0  0  0  0  0  0  0  0  0  0  0  0
    2.4233    0.1057    0.2943 C   0  0  0  0  0  0  0  0  0  0  0  0
    3.7874   -0.1299   -0.1706 C   0  0  0  0  0  0  0  0  0  0  0  0
    4.1311   -1.2980   -0.8619 C   0  0  0  0  0  0  0  0  0  0  0  0
    5.4440   -1.5090   -1.3016 C   0  0  0  0  0  0  0  0  0  0  0  0
    6.4489   -0.5818   -1.0249 C   0  0  0  0  0  0  0  0  0  0  0  0
    7.7272   -0.7414   -1.5695 N   0  0  0  0  0  0  0  0  0  0  0  0
    6.0973    0.6080   -0.3876 C   0  0  0  0  0  0  0  0  0  0  0  0
    4.7870    0.8234    0.0563 C   0  0  0  0  0  0  0  0  0  0  0  0
    1.2971   -0.4058   -0.3056 N   0  0  0  0  0  0  0  0  0  0  0  0
   -2.1956    0.1992    0.8215 N   0  0  0  0  0  0  0  0  0  0  0  0
   -3.5307   -0.0785    0.5587 C   0  0  0  0  0  0  0  0  0  0  0  0
   -4.5561    0.4431    1.3532 C   0  0  0  0  0  0  0  0  0  0  0  0
   -4.2508    1.2311    2.3958 F   0  0  0  0  0  0  0  0  0  0  0  0
   -5.8915    0.1634    1.0877 C   0  0  0  0  0  0  0  0  0  0  0  0
   -6.2155   -0.6530    0.0083 C   0  0  0  0  0  0  0  0  0  0  0  0
   -5.2008   -1.1815   -0.7948 C   0  0  0  0  0  0  0  0  0  0  0  0
   -3.8473   -0.9001   -0.5283 C   0  0  0  0  0  0  0  0  0  0  0  0
  2  1  1  0
  2  3  1  0
  2  4  1  0
  4  5  2  0
  5  6  1  0
  6  7  2  0
  7  8  1  0
  8  9  2  0
  9 10  1  0
 10 11  2  0
 11 12  1  0
 12 13  2  0
 13 14  1  0
 13 15  1  0
 15 16  2  0
  9 17  1  0
  5 18  1  0
 18 19  1  0
 19 20  2  0
 20 21  1  0
 20 22  1  0
 22 23  2  0
 23 24  1  0
 24 25  2  0
 25  2  1  0
 17  6  1  0
 25 19  1  0
 16 10  1  0
M  END
>  <energy>  (277) 
23.10

>  <full_id>  (277) 
MOL00012000-000022-02_1

>  <mol_id>  (277) 
MOL00012000-000022-02

>  <act_mol>  (277) 
0

>  <act_conf>  (277) 
0

$$$$
MOL00011450-004095-02
     RDKit          3D

 32 36  0  0  0  0  0  0  0  0999 V2000
    0.0755    6.7677   -2.6122 C   0  0  0  0  0  0  0  0  0  0  0  0
    1.1725    6.0687   -2.2934 C   0  0  0  0  0  0  0  0  0  0  0  0
    1.1643    4.7208   -1.7094 C   0  0  0  0  0  0  0  0  0  0  0  0
    0.1926    3.7669   -2.0323 C   0  0  0  0  0  0  0  0  0  0  0  0
    0.2370    2.4825   -1.4760 C   0  0  0  0  0  0  0  0  0  0  0  0
    1.2558    2.1232   -0.5859 C   0  0  0  0  0  0  0  0  0  0  0  0
    1.3316    0.7778   -0.0057 C   0  0  0  0  0  0  0  0  0  0  0  0
    2.5433    0.1045    0.0022 N   0  0  0  0  0  0  0  0  0  0  0  0
    2.2811   -1.1647    0.4886 N   0  0  0  0  0  0  0  0  0  0  0  0
    3.1895   -2.1879    0.4956 C   0  0  0  0  0  0  0  0  0  0  0  0
    4.4184   -2.1545    0.0221 N   0  0  0  0  0  0  0  0  0  0  0  0
    4.9291   -3.4109    0.2450 C   0  0  0  0  0  0  0  0  0  0  0  0
    6.1967   -3.9298   -0.0557 C   0  0  0  0  0  0  0  0  0  0  0  0
    6.4732   -5.2624    0.2765 C   0  0  0  0  0  0  0  0  0  0  0  0
    5.5077   -6.0615    0.8947 C   0  0  0  0  0  0  0  0  0  0  0  0
    4.2369   -5.5616    1.2027 C   0  0  0  0  0  0  0  0  0  0  0  0
    3.9895   -4.2310    0.8607 C   0  0  0  0  0  0  0  0  0  0  0  0
    2.8908   -3.4269    1.0066 N   0  0  0  0  0  0  0  0  0  0  0  0
    0.9634   -1.2464    0.9060 C   0  0  0  0  0  0  0  0  0  0  0  0
    0.3745   -2.1913    1.4088 O   0  0  0  0  0  0  0  0  0  0  0  0
    0.3412    0.0673    0.5689 C   0  0  0  0  0  0  0  0  0  0  0  0
   -1.0872    0.3612    0.8629 C   0  0  0  0  0  0  0  0  0  0  0  0
   -2.0392   -0.4596   -0.0251 C   0  0  0  0  0  0  0  0  0  0  0  0
   -3.4404    0.0031    0.0396 N   0  0  0  0  0  0  0  0  0  0  0  0
   -4.2286   -0.6425   -1.0260 C   0  0  0  0  0  0  0  0  0  0  0  0
   -5.6724   -0.1496   -1.0342 C   0  0  0  0  0  0  0  0  0  0  0  0
   -6.3268   -0.3721    0.3214 C   0  0  0  0  0  0  0  0  0  0  0  0
   -7.6307    0.2012    0.3085 O   0  0  0  0  0  0  0  0  0  0  0  0
   -5.4831    0.2567    1.4221 C   0  0  0  0  0  0  0  0  0  0  0  0
   -4.0408   -0.2442    1.3606 C   0  0  0  0  0  0  0  0  0  0  0  0
    2.2422    3.0706   -0.2836 C   0  0  0  0  0  0  0  0  0  0  0  0
    2.1982    4.3537   -0.8409 C   0  0  0  0  0  0  0  0  0  0  0  0
  1  2  2  0
  2  3  1  0
  3  4  2  0
  4  5  1  0
  5  6  2  0
  6  7  1  0
  7  8  1  0
  8  9  1  0
  9 10  1  0
 10 11  2  0
 11 12  1  0
 12 13  2  0
 13 14  1  0
 14 15  2  0
 15 16  1  0
 16 17  2  0
 17 18  1  0
  9 19  1  0
 19 20  2  0
 19 21  1  0
 21 22  1  0
 22 23  1  0
 23 24  1  0
 24 25  1  0
 25 26  1  0
 26 27  1  0
 27 28  1  0
 27 29  1  0
 29 30  1  0
  6 31  1  0
 31 32  2  0
 32  3  1  0
 21  7  2  0
 30 24  1  0
 18 10  1  0
 17 12  1  0
M  END
>  <energy>  (278) 
56.78

>  <full_id>  (278) 
MOL00011450-004095-02_1

>  <mol_id>  (278) 
MOL00011450-004095-02

>  <act_mol>  (278) 
0

>  <act_conf>  (278) 
0

$$$$
MOL00011539-000938-04
     RDKit          3D

 29 32  0  0  0  0  0  0  0  0999 V2000
   -8.4378   -0.7935   -1.5577 C   0  0  0  0  0  0  0  0  0  0  0  0
   -7.6464   -2.0545   -1.8671 C   0  0  0  0  0  0  0  0  0  0  0  0
   -6.4553   -2.1983   -0.9577 C   0  0  0  0  0  0  0  0  0  0  0  0
   -6.5728   -2.8245    0.2676 C   0  0  0  0  0  0  0  0  0  0  0  0
   -5.4288   -2.8838    1.0289 C   0  0  0  0  0  0  0  0  0  0  0  0
   -4.2485   -2.3718    0.6401 N   0  0  0  0  0  0  0  0  0  0  0  0
   -4.2366   -1.7806   -0.5647 C   0  0  0  0  0  0  0  0  0  0  0  0
   -3.0795   -1.2111   -1.0465 O   0  0  0  0  0  0  0  0  0  0  0  0
   -1.9259   -1.3565   -0.2111 C   0  0  1  0  0  0  0  0  0  0  0  0
   -0.6955   -1.2893   -1.1275 C   0  0  0  0  0  0  0  0  0  0  0  0
   -0.5308    0.0844   -1.7834 C   0  0  0  0  0  0  0  0  0  0  0  0
   -0.5029    1.2231   -0.7559 C   0  0  2  0  0  0  0  0  0  0  0  0
    0.7397    1.2180   -0.0032 N   0  0  0  0  0  0  0  0  0  0  0  0
    1.9223    1.7261   -0.4968 C   0  0  0  0  0  0  0  0  0  0  0  0
    2.0177    2.3566   -1.5446 O   0  0  0  0  0  0  0  0  0  0  0  0
    3.0784    1.4204    0.3600 C   0  0  0  0  0  0  0  0  0  0  0  0
    4.4201    1.8244    0.1569 C   0  0  0  0  0  0  0  0  0  0  0  0
    5.1407    1.2989    1.2093 C   0  0  0  0  0  0  0  0  0  0  0  0
    6.5401    1.4039    1.4950 C   0  0  0  0  0  0  0  0  0  0  0  0
    7.5205    2.0696    0.7752 C   0  0  0  0  0  0  0  0  0  0  0  0
    8.7477    1.8842    1.4566 C   0  0  0  0  0  0  0  0  0  0  0  0
    8.4549    1.1165    2.5551 C   0  0  0  0  0  0  0  0  0  0  0  0
    7.1319    0.8225    2.5876 O   0  0  0  0  0  0  0  0  0  0  0  0
    4.2203    0.6218    1.9708 N   0  0  0  0  0  0  0  0  0  0  0  0
    4.4522   -0.1119    3.1946 C   0  0  0  0  0  0  0  0  0  0  0  0
    2.9620    0.6742    1.4771 N   0  0  0  0  0  0  0  0  0  0  0  0
   -1.7069    1.1496    0.1893 C   0  0  0  0  0  0  0  0  0  0  0  0
   -1.8740   -0.2311    0.8314 C   0  0  0  0  0  0  0  0  0  0  0  0
   -5.2921   -1.6652   -1.3837 N   0  0  0  0  0  0  0  0  0  0  0  0
  1  2  1  0
  2  3  1  0
  3  4  2  0
  4  5  1  0
  5  6  2  0
  6  7  1  0
  7  8  1  0
  9  8  1  6
  9 10  1  0
 10 11  1  0
 11 12  1  0
 12 13  1  1
 13 14  1  0
 14 15  2  0
 14 16  1  0
 16 17  1  0
 17 18  2  0
 18 19  1  0
 19 20  2  0
 20 21  1  0
 21 22  2  0
 22 23  1  0
 18 24  1  0
 24 25  1  0
 24 26  1  0
 12 27  1  0
 27 28  1  0
  7 29  2  0
 29  3  1  0
 28  9  1  0
 26 16  2  0
 23 19  1  0
M  END
>  <energy>  (279) 
-12.41

>  <full_id>  (279) 
MOL00011539-000938-04_1

>  <mol_id>  (279) 
MOL00011539-000938-04

>  <act_mol>  (279) 
0

>  <act_conf>  (279) 
0

$$$$
MOL00011657-000260-03
     RDKit          3D

 30 32  0  0  0  0  0  0  0  0999 V2000
   -2.5763    2.7533   -4.4529 C   0  0  0  0  0  0  0  0  0  0  0  0
   -2.8959    1.3200   -4.0407 C   0  0  0  0  0  0  0  0  0  0  0  0
   -1.9823    0.8266   -2.9875 N   0  0  0  0  0  0  0  0  0  0  0  0
   -0.6563    0.4745   -3.5741 C   0  0  0  0  0  0  0  0  0  0  0  0
    0.3908    0.2704   -2.4715 C   0  0  0  0  0  0  0  0  0  0  0  0
    1.3256   -0.5190   -2.5826 O   0  0  0  0  0  0  0  0  0  0  0  0
    0.1764    1.0792   -1.3673 N   0  0  0  0  0  0  0  0  0  0  0  0
    0.8292    0.7225   -0.1972 N   0  0  0  0  0  0  0  0  0  0  0  0
    0.4736   -0.3643    0.5628 C   0  0  0  0  0  0  0  0  0  0  0  0
   -0.5017   -1.0902    0.4424 O   0  0  0  0  0  0  0  0  0  0  0  0
    1.4409   -0.5246    1.5369 N   0  0  0  0  0  0  0  0  0  0  0  0
    2.5661    0.3798    1.3460 C   0  0  1  0  0  0  0  0  0  0  0  0
    2.7940    1.2584    2.5783 C   0  0  0  0  0  0  0  0  0  0  0  0
    3.4038    0.4729    3.7395 C   0  0  0  0  0  0  0  0  0  0  0  0
    4.6869   -0.2575    3.3219 C   0  0  1  0  0  0  0  0  0  0  0  0
    5.2409   -1.0763    4.4888 C   0  0  0  0  0  0  0  0  0  0  0  0
    4.4449   -1.1546    2.0992 C   0  0  0  0  0  0  0  0  0  0  0  0
    3.8338   -0.3767    0.9320 C   0  0  0  0  0  0  0  0  0  0  0  0
    2.0575    1.2263    0.1586 C   0  0  0  0  0  0  0  0  0  0  0  0
    2.6620    2.1585   -0.3585 O   0  0  0  0  0  0  0  0  0  0  0  0
   -2.5756   -0.3687   -2.3313 C   0  0  0  0  0  0  0  0  0  0  0  0
   -3.5130   -0.0667   -1.1633 C   0  0  0  0  0  0  0  0  0  0  0  0
   -3.7651    1.2580   -0.7435 C   0  0  0  0  0  0  0  0  0  0  0  0
   -4.6227    1.5308    0.3241 C   0  0  0  0  0  0  0  0  0  0  0  0
   -5.2374    0.4815    0.9935 C   0  0  0  0  0  0  0  0  0  0  0  0
   -6.0637    0.7397    2.0154 F   0  0  0  0  0  0  0  0  0  0  0  0
   -5.0028   -0.8340    0.6178 C   0  0  0  0  0  0  0  0  0  0  0  0
   -4.1285   -1.1320   -0.4476 C   0  0  0  0  0  0  0  0  0  0  0  0
   -3.9158   -2.5901   -0.7977 C   0  0  0  0  0  0  0  0  0  0  0  0
   -3.6883   -3.3690    0.3828 O   0  0  0  0  0  0  0  0  0  0  0  0
  1  2  1  0
  2  3  1  0
  3  4  1  0
  4  5  1  0
  5  6  2  0
  5  7  1  0
  7  8  1  0
  8  9  1  0
  9 10  2  0
  9 11  1  0
 11 12  1  0
 12 13  1  1
 13 14  1  0
 14 15  1  0
 15 16  1  1
 15 17  1  0
 17 18  1  0
 12 19  1  0
 19 20  2  0
  3 21  1  0
 21 22  1  0
 22 23  2  0
 23 24  1  0
 24 25  2  0
 25 26  1  0
 25 27  1  0
 27 28  2  0
 28 29  1  0
 29 30  1  0
 19  8  1  0
 28 22  1  0
 18 12  1  0
M  END
>  <energy>  (280) 
59.52

>  <full_id>  (280) 
MOL00011657-000260-03_1

>  <mol_id>  (280) 
MOL00011657-000260-03

>  <act_mol>  (280) 
0

>  <act_conf>  (280) 
0

$$$$
MOL00011654-000856-04
     RDKit          3D

 32 35  0  0  0  0  0  0  0  0999 V2000
    0.7909    2.7220   -3.8948 C   0  0  0  0  0  0  0  0  0  0  0  0
    0.8716    1.2460   -3.5129 C   0  0  0  0  0  0  0  0  0  0  0  0
    0.3677    0.3660   -4.6559 C   0  0  0  0  0  0  0  0  0  0  0  0
    0.0500    1.0342   -2.3118 N   0  0  0  0  0  0  0  0  0  0  0  0
    0.1932   -0.0809   -1.4689 C   0  0  0  0  0  0  0  0  0  0  0  0
   -0.8431   -0.8723   -1.0951 C   0  0  0  0  0  0  0  0  0  0  0  0
   -2.2393   -0.5849   -1.5313 C   0  0  0  0  0  0  0  0  0  0  0  0
   -2.4884    0.0006   -2.5816 O   0  0  0  0  0  0  0  0  0  0  0  0
   -3.2146   -0.9572   -0.6332 N   0  0  0  0  0  0  0  0  0  0  0  0
   -4.5942   -0.5320   -0.8123 C   0  0  0  0  0  0  0  0  0  0  0  0
   -4.8142    0.9474   -0.4691 C   0  0  0  0  0  0  0  0  0  0  0  0
   -4.4071    1.2812    0.9480 C   0  0  0  0  0  0  0  0  0  0  0  0
   -3.1828    1.9197    1.2004 C   0  0  0  0  0  0  0  0  0  0  0  0
   -2.7841    2.1982    2.5090 C   0  0  0  0  0  0  0  0  0  0  0  0
   -3.6121    1.8375    3.5663 C   0  0  0  0  0  0  0  0  0  0  0  0
   -3.2623    2.0883    4.8598 O   0  0  0  0  0  0  0  0  0  0  0  0
   -4.8283    1.2060    3.3356 C   0  0  0  0  0  0  0  0  0  0  0  0
   -5.2273    0.9272    2.0279 C   0  0  0  0  0  0  0  0  0  0  0  0
   -0.5206   -2.0717   -0.2809 C   0  0  0  0  0  0  0  0  0  0  0  0
    0.6333   -2.4120    0.1936 N   0  0  0  0  0  0  0  0  0  0  0  0
    1.6035   -1.5251   -0.1241 N   0  0  0  0  0  0  0  0  0  0  0  0
    2.9001   -1.6343    0.3095 C   0  0  0  0  0  0  0  0  0  0  0  0
    3.6101   -0.5276   -0.1090 C   0  0  0  0  0  0  0  0  0  0  0  0
    5.0151   -0.2912    0.1860 C   0  0  0  0  0  0  0  0  0  0  0  0
    5.8073    0.4743   -0.6711 C   0  0  0  0  0  0  0  0  0  0  0  0
    7.1207    0.7477   -0.4695 N   0  0  0  0  0  0  0  0  0  0  0  0
    7.6749    0.2284    0.6486 C   0  0  0  0  0  0  0  0  0  0  0  0
    6.9757   -0.5423    1.5636 C   0  0  0  0  0  0  0  0  0  0  0  0
    7.6214   -1.0183    2.6646 O   0  0  0  0  0  0  0  0  0  0  0  0
    5.6297   -0.8064    1.3330 C   0  0  0  0  0  0  0  0  0  0  0  0
    2.6923    0.2688   -0.8493 C   0  0  0  0  0  0  0  0  0  0  0  0
    1.4706   -0.3840   -0.8890 C   0  0  0  0  0  0  0  0  0  0  0  0
  2  1  1  0
  2  3  1  0
  2  4  1  0
  4  5  1  0
  5  6  2  0
  6  7  1  0
  7  8  2  0
  7  9  1  0
  9 10  1  0
 10 11  1  0
 11 12  1  0
 12 13  2  0
 13 14  1  0
 14 15  2  0
 15 16  1  0
 15 17  1  0
 17 18  2  0
  6 19  1  0
 19 20  2  0
 20 21  1  0
 21 22  1  0
 22 23  2  0
 23 24  1  0
 24 25  2  0
 25 26  1  0
 26 27  2  0
 27 28  1  0
 28 29  1  0
 28 30  2  0
 23 31  1  0
 31 32  2  0
 32  5  1  0
 18 12  1  0
 32 21  1  0
 30 24  1  0
M  END
>  <energy>  (281) 
30.19

>  <full_id>  (281) 
MOL00011654-000856-04_1

>  <mol_id>  (281) 
MOL00011654-000856-04

>  <act_mol>  (281) 
0

>  <act_conf>  (281) 
0

$$$$
MOL00012061-000398-02
     RDKit          3D

 22 23  0  0  0  0  0  0  0  0999 V2000
    5.0244   -3.5422   -0.3436 C   0  0  0  0  0  0  0  0  0  0  0  0
    4.6788   -2.1997   -0.7376 N   0  0  0  0  0  0  0  0  0  0  0  0
    3.8784   -1.4117    0.0641 C   0  0  0  0  0  0  0  0  0  0  0  0
    3.3733   -1.8209    1.1038 O   0  0  0  0  0  0  0  0  0  0  0  0
    3.6970    0.0175   -0.4587 C   0  0  1  0  0  0  0  0  0  0  0  0
    3.0097    0.0445   -1.8310 C   0  0  0  0  0  0  0  0  0  0  0  0
    1.5131   -0.2479   -1.7430 C   0  0  0  0  0  0  0  0  0  0  0  0
    0.8081    0.7141   -0.7832 C   0  0  1  0  0  0  0  0  0  0  0  0
   -0.6131    0.3964   -0.7169 N   0  0  0  0  0  0  0  0  0  0  0  0
   -1.5222    1.3376   -0.2984 C   0  0  0  0  0  0  0  0  0  0  0  0
   -1.1892    2.4825   -0.0025 O   0  0  0  0  0  0  0  0  0  0  0  0
   -2.8391    0.9087   -0.2520 N   0  0  0  0  0  0  0  0  0  0  0  0
   -3.8227    1.7506    0.4137 C   0  0  0  0  0  0  0  0  0  0  0  0
   -4.0694    1.3224    1.8607 C   0  0  0  0  0  0  0  0  0  0  0  0
   -4.7049   -0.0726    1.9669 C   0  0  2  0  0  0  0  0  0  0  0  0
   -5.3125   -0.2696    3.3560 C   0  0  0  0  0  0  0  0  0  0  0  0
   -3.7467   -1.1410    1.7058 N   0  0  0  0  0  0  0  0  0  0  0  0
   -3.0835   -1.3907    0.5373 C   0  0  0  0  0  0  0  0  0  0  0  0
   -2.3579   -2.3804    0.4436 O   0  0  0  0  0  0  0  0  0  0  0  0
   -3.2780   -0.4324   -0.6310 C   0  0  0  0  0  0  0  0  0  0  0  0
    1.4538    0.6639    0.6064 C   0  0  0  0  0  0  0  0  0  0  0  0
    2.9614    0.9160    0.5468 C   0  0  0  0  0  0  0  0  0  0  0  0
  1  2  1  0
  2  3  1  0
  3  4  2  0
  5  3  1  1
  5  6  1  0
  6  7  1  0
  7  8  1  0
  8  9  1  1
  9 10  1  0
 10 11  2  0
 10 12  1  0
 12 13  1  0
 13 14  1  0
 14 15  1  0
 15 16  1  1
 15 17  1  0
 17 18  1  0
 18 19  2  0
 18 20  1  0
  8 21  1  0
 21 22  1  0
 22  5  1  0
 20 12  1  0
M  END
>  <energy>  (282) 
-84.40

>  <full_id>  (282) 
MOL00012061-000398-02_1

>  <mol_id>  (282) 
MOL00012061-000398-02

>  <act_mol>  (282) 
0

>  <act_conf>  (282) 
0

$$$$
MOL00011757-000084-04
     RDKit          3D

 36 39  0  0  0  0  0  0  0  0999 V2000
    8.3378   -1.2148    1.0006 C   0  0  0  0  0  0  0  0  0  0  0  0
    7.1717   -2.0155    0.8506 O   0  0  0  0  0  0  0  0  0  0  0  0
    5.9858   -1.3630    0.6445 C   0  0  0  0  0  0  0  0  0  0  0  0
    4.8852   -2.2024    0.4605 C   0  0  0  0  0  0  0  0  0  0  0  0
    3.6172   -1.6694    0.2347 C   0  0  0  0  0  0  0  0  0  0  0  0
    3.4437   -0.2859    0.1926 C   0  0  0  0  0  0  0  0  0  0  0  0
    4.5320    0.5803    0.3801 C   0  0  0  0  0  0  0  0  0  0  0  0
    4.3594    2.0316    0.3350 C   0  0  0  0  0  0  0  0  0  0  0  0
    5.2230    3.1044    0.2268 C   0  0  0  0  0  0  0  0  0  0  0  0
    4.4262    4.2760    0.2402 C   0  0  0  0  0  0  0  0  0  0  0  0
    3.1145    3.8629    0.3640 C   0  0  0  0  0  0  0  0  0  0  0  0
    1.8920    4.6284    0.4247 C   0  0  0  0  0  0  0  0  0  0  0  0
    0.6712    4.1997    0.5748 N   0  0  0  0  0  0  0  0  0  0  0  0
    0.4673    2.8598    0.7164 N   0  0  0  0  0  0  0  0  0  0  0  0
   -0.8177    2.3455    0.7712 C   0  0  0  0  0  0  0  0  0  0  0  0
   -1.8548    3.0101    0.7030 O   0  0  0  0  0  0  0  0  0  0  0  0
   -0.8537    0.8118    0.9420 C   0  0  2  0  0  0  0  0  0  0  0  0
   -2.2182    0.3701    0.6550 N   0  0  0  0  0  0  0  0  0  0  0  0
   -2.4763   -0.7459   -0.1066 C   0  0  0  0  0  0  0  0  0  0  0  0
   -1.6005   -1.5166   -0.4840 O   0  0  0  0  0  0  0  0  0  0  0  0
   -3.8958   -0.9735   -0.5013 C   0  0  0  0  0  0  0  0  0  0  0  0
   -4.1425   -1.7776   -1.6407 C   0  0  0  0  0  0  0  0  0  0  0  0
   -5.4482   -2.0285   -2.0761 C   0  0  0  0  0  0  0  0  0  0  0  0
   -5.8058   -2.7780   -3.1591 O   0  0  0  0  0  0  0  0  0  0  0  0
   -4.7567   -3.4042   -3.8864 C   0  0  0  0  0  0  0  0  0  0  0  0
   -6.4775   -1.4612   -1.3433 C   0  0  0  0  0  0  0  0  0  0  0  0
   -6.2381   -0.6913   -0.2270 C   0  0  0  0  0  0  0  0  0  0  0  0
   -4.9626   -0.4314    0.2266 C   0  0  0  0  0  0  0  0  0  0  0  0
   -7.3836   -0.2404    0.3525 O   0  0  0  0  0  0  0  0  0  0  0  0
   -8.3756   -0.7977   -0.5343 C   0  0  0  0  0  0  0  0  0  0  0  0
   -7.8115   -1.5812   -1.6014 O   0  0  0  0  0  0  0  0  0  0  0  0
   -0.3592    0.3826    2.3434 C   0  0  0  0  0  0  0  0  0  0  0  0
   -0.1551   -1.1320    2.4340 C   0  0  0  0  0  0  0  0  0  0  0  0
   -1.2877    0.8475    3.4707 C   0  0  0  0  0  0  0  0  0  0  0  0
    3.0755    2.4949    0.4223 O   0  0  0  0  0  0  0  0  0  0  0  0
    5.8049    0.0229    0.6069 C   0  0  0  0  0  0  0  0  0  0  0  0
  1  2  1  0
  2  3  1  0
  3  4  2  0
  4  5  1  0
  5  6  2  0
  6  7  1  0
  7  8  1  0
  8  9  2  0
  9 10  1  0
 10 11  2  0
 11 12  1  0
 12 13  2  0
 13 14  1  0
 14 15  1  0
 15 16  2  0
 15 17  1  0
 17 18  1  1
 18 19  1  0
 19 20  2  0
 19 21  1  0
 21 22  2  0
 22 23  1  0
 23 24  1  0
 24 25  1  0
 23 26  2  0
 26 27  1  0
 27 28  2  0
 27 29  1  0
 29 30  1  0
 30 31  1  0
 17 32  1  0
 32 33  1  0
 32 34  1  0
 11 35  1  0
  7 36  2  0
 36  3  1  0
 35  8  1  0
 28 21  1  0
 31 26  1  0
M  END
>  <energy>  (283) 
121.67

>  <full_id>  (283) 
MOL00011757-000084-04_1

>  <mol_id>  (283) 
MOL00011757-000084-04

>  <act_mol>  (283) 
0

>  <act_conf>  (283) 
0

$$$$
MOL00012039-000716-02
     RDKit          3D

 31 35  0  0  0  0  0  0  0  0999 V2000
   -4.7787   -4.4597    0.9759 C   0  0  0  0  0  0  0  0  0  0  0  0
   -5.1513   -3.0519    0.6180 C   0  0  0  0  0  0  0  0  0  0  0  0
   -6.4824   -2.7110    0.3699 C   0  0  0  0  0  0  0  0  0  0  0  0
   -6.8110   -1.4072    0.0069 C   0  0  0  0  0  0  0  0  0  0  0  0
   -8.1025   -1.1149   -0.2171 F   0  0  0  0  0  0  0  0  0  0  0  0
   -5.8323   -0.4116   -0.1300 C   0  0  0  0  0  0  0  0  0  0  0  0
   -6.1518    0.9036   -0.4943 C   0  0  0  0  0  0  0  0  0  0  0  0
   -5.1491    1.8691   -0.6258 C   0  0  0  0  0  0  0  0  0  0  0  0
   -3.8002    1.5566   -0.4043 C   0  0  0  0  0  0  0  0  0  0  0  0
   -2.8508    2.5746   -0.5386 N   0  0  0  0  0  0  0  0  0  0  0  0
   -1.4737    2.6532   -0.3512 C   0  0  0  0  0  0  0  0  0  0  0  0
   -0.9334    3.8389   -0.6722 N   0  0  0  0  0  0  0  0  0  0  0  0
    0.3907    3.9743   -0.4951 C   0  0  0  0  0  0  0  0  0  0  0  0
    1.1944    2.9701   -0.0225 C   0  0  0  0  0  0  0  0  0  0  0  0
    0.5692    1.7789    0.2667 C   0  0  0  0  0  0  0  0  0  0  0  0
    1.2579    0.6780    0.7871 N   0  0  0  0  0  0  0  0  0  0  0  0
    2.5457    0.1751    0.5317 C   0  0  0  0  0  0  0  0  0  0  0  0
    3.0863   -0.7512    1.4368 C   0  0  0  0  0  0  0  0  0  0  0  0
    4.3731   -1.2731    1.2612 C   0  0  0  0  0  0  0  0  0  0  0  0
    5.1423   -0.8744    0.1664 C   0  0  0  0  0  0  0  0  0  0  0  0
    6.5088   -1.4165   -0.0424 C   0  0  0  0  0  0  0  0  0  0  0  0
    7.3344   -0.8752   -0.9049 N   0  0  0  0  0  0  0  0  0  0  0  0
    8.5746   -1.6914   -0.8015 C   0  0  0  0  0  0  0  0  0  0  0  0
    8.1948   -2.9505   -0.0227 C   0  0  0  0  0  0  0  0  0  0  0  0
    6.9763   -2.5245    0.6295 N   0  0  0  0  0  0  0  0  0  0  0  0
    4.6192    0.0518   -0.7391 C   0  0  0  0  0  0  0  0  0  0  0  0
    3.3315    0.5699   -0.5561 C   0  0  0  0  0  0  0  0  0  0  0  0
   -0.7582    1.6231    0.1234 N   0  0  0  0  0  0  0  0  0  0  0  0
   -3.4914    0.2423   -0.0346 C   0  0  0  0  0  0  0  0  0  0  0  0
   -4.4843   -0.7485    0.1045 C   0  0  0  0  0  0  0  0  0  0  0  0
   -4.1608   -2.0692    0.4710 C   0  0  0  0  0  0  0  0  0  0  0  0
  1  2  1  0
  2  3  2  0
  3  4  1  0
  4  5  1  0
  4  6  2  0
  6  7  1  0
  7  8  2  0
  8  9  1  0
  9 10  1  0
 10 11  1  0
 11 12  2  0
 12 13  1  0
 13 14  2  0
 14 15  1  0
 15 16  1  0
 16 17  1  0
 17 18  2  0
 18 19  1  0
 19 20  2  0
 20 21  1  0
 21 22  2  0
 22 23  1  0
 23 24  1  0
 24 25  1  0
 20 26  1  0
 26 27  2  0
 15 28  2  0
  9 29  2  0
 29 30  1  0
 30 31  2  0
 31  2  1  0
 30  6  1  0
 28 11  1  0
 27 17  1  0
 25 21  1  0
M  END
>  <energy>  (284) 
-31.47

>  <full_id>  (284) 
MOL00012039-000716-02_1

>  <mol_id>  (284) 
MOL00012039-000716-02

>  <act_mol>  (284) 
0

>  <act_conf>  (284) 
0

$$$$
MOL00012066-000850-04
     RDKit          3D

 28 32  0  0  0  0  0  0  0  0999 V2000
   -8.4930   -0.0118    1.1780 C   0  0  0  0  0  0  0  0  0  0  0  0
   -7.4655   -0.5421    0.3484 O   0  0  0  0  0  0  0  0  0  0  0  0
   -6.2064   -0.0396    0.5168 C   0  0  0  0  0  0  0  0  0  0  0  0
   -5.8211    0.9206    1.4486 C   0  0  0  0  0  0  0  0  0  0  0  0
   -4.4878    1.3395    1.5174 C   0  0  0  0  0  0  0  0  0  0  0  0
   -3.5204    0.7990    0.6574 C   0  0  0  0  0  0  0  0  0  0  0  0
   -3.9118   -0.1533   -0.3011 C   0  0  0  0  0  0  0  0  0  0  0  0
   -5.2493   -0.5718   -0.3506 C   0  0  0  0  0  0  0  0  0  0  0  0
   -2.9105   -0.7733   -1.2445 C   0  0  0  0  0  0  0  0  0  0  0  0
   -1.6070    0.0236   -1.3255 C   0  0  0  0  0  0  0  0  0  0  0  0
   -1.1320    0.3279    0.0824 N   0  0  1  0  0  4  0  0  0  0  0  0
    0.3145    0.7726    0.2120 C   0  0  1  0  0  0  0  0  0  0  0  0
    1.2739   -0.7520    0.1701 S   0  0  0  0  0  0  0  0  0  0  0  0
    2.9115   -0.0622    0.0368 C   0  0  0  0  0  0  0  0  0  0  0  0
    3.9952   -0.8520    0.4552 C   0  0  0  0  0  0  0  0  0  0  0  0
    5.3167   -0.4035    0.2960 C   0  0  0  0  0  0  0  0  0  0  0  0
    6.4162   -1.2108    0.7173 N   0  0  0  0  0  0  0  0  0  0  0  0
    7.7599   -0.9445    0.5596 C   0  0  0  0  0  0  0  0  0  0  0  0
    8.4317   -2.0092    1.1134 C   0  0  0  0  0  0  0  0  0  0  0  0
    7.5541   -2.9233    1.6153 N   0  0  0  0  0  0  0  0  0  0  0  0
    6.3632   -2.4252    1.3692 C   0  0  0  0  0  0  0  0  0  0  0  0
    5.5378    0.8450   -0.2995 C   0  0  0  0  0  0  0  0  0  0  0  0
    4.4596    1.6312   -0.7220 C   0  0  0  0  0  0  0  0  0  0  0  0
    3.1482    1.1876   -0.5478 C   0  0  0  0  0  0  0  0  0  0  0  0
    2.1136    2.0133   -1.0118 N   0  0  0  0  0  0  0  0  0  0  0  0
    0.7762    1.8383   -0.7928 C   0  0  0  0  0  0  0  0  0  0  0  0
   -0.0295    2.6017   -1.3302 O   0  0  0  0  0  0  0  0  0  0  0  0
   -2.0954    1.2801    0.7397 C   0  0  0  0  0  0  0  0  0  0  0  0
  1  2  1  0
  2  3  1  0
  3  4  2  0
  4  5  1  0
  5  6  2  0
  6  7  1  0
  7  8  2  0
  7  9  1  0
  9 10  1  0
 11 10  1  6
 11 12  1  0
 12 13  1  6
 13 14  1  0
 14 15  2  0
 15 16  1  0
 16 17  1  0
 17 18  1  0
 18 19  2  0
 19 20  1  0
 20 21  2  0
 16 22  2  0
 22 23  1  0
 23 24  2  0
 24 25  1  0
 25 26  1  0
 26 27  2  0
 11 28  1  0
  8  3  1  0
 26 12  1  0
 28  6  1  0
 24 14  1  0
 21 17  1  0
M  CHG  1  11   1
M  END
>  <energy>  (285) 
87.96

>  <full_id>  (285) 
MOL00012066-000850-04_1

>  <mol_id>  (285) 
MOL00012066-000850-04

>  <act_mol>  (285) 
0

>  <act_conf>  (285) 
0

$$$$
MOL00011885-001517-03
     RDKit          3D

 36 38  0  0  0  0  0  0  0  0999 V2000
   10.5319    0.0721   -1.3851 C   0  0  0  0  0  0  0  0  0  0  0  0
    9.2444   -0.1001   -0.5845 C   0  0  0  0  0  0  0  0  0  0  0  0
    8.4442    1.1369   -0.4902 N   0  0  0  0  0  0  0  0  0  0  0  0
    9.1353    2.1524    0.3121 C   0  0  0  0  0  0  0  0  0  0  0  0
    7.1132    0.8188    0.0831 C   0  0  0  0  0  0  0  0  0  0  0  0
    6.0805    1.9671   -0.0586 C   0  0  0  0  0  0  0  0  0  0  0  0
    4.7342    1.6220    0.4588 N   0  0  0  0  0  0  0  0  0  0  0  0
    3.9672    2.8596    0.6636 C   0  0  0  0  0  0  0  0  0  0  0  0
    4.0204    0.7247   -0.4722 C   0  0  0  0  0  0  0  0  0  0  0  0
    2.7450    0.1563    0.1105 C   0  0  0  0  0  0  0  0  0  0  0  0
    2.7602   -0.5568    1.3077 C   0  0  0  0  0  0  0  0  0  0  0  0
    1.5663   -1.0637    1.7840 C   0  0  0  0  0  0  0  0  0  0  0  0
    0.3785   -0.9142    1.1572 N   0  0  0  0  0  0  0  0  0  0  0  0
    0.3511   -0.2125    0.0050 C   0  0  0  0  0  0  0  0  0  0  0  0
   -0.8485   -0.0252   -0.7063 N   0  0  0  0  0  0  0  0  0  0  0  0
   -2.1319   -0.4775   -0.3935 C   0  0  0  0  0  0  0  0  0  0  0  0
   -2.3804   -1.7041    0.1973 C   0  0  0  0  0  0  0  0  0  0  0  0
   -3.6983   -2.0825    0.4354 C   0  0  0  0  0  0  0  0  0  0  0  0
   -3.9942   -3.3595    1.0813 C   0  0  0  0  0  0  0  0  0  0  0  0
   -5.2652   -3.7071    1.3012 C   0  0  0  0  0  0  0  0  0  0  0  0
   -6.3216   -2.9028    0.9218 N   0  0  0  0  0  0  0  0  0  0  0  0
   -7.6955   -3.3701    1.1216 C   0  0  0  0  0  0  0  0  0  0  0  0
   -8.2831   -4.1277   -0.0610 C   0  0  0  0  0  0  0  0  0  0  0  0
   -9.4242   -4.5659   -0.1135 O   0  0  0  0  0  0  0  0  0  0  0  0
   -7.4401   -4.3449   -1.0901 O   0  0  0  0  0  0  0  0  0  0  0  0
   -6.1411   -1.6843    0.2536 C   0  0  0  0  0  0  0  0  0  0  0  0
   -7.0854   -1.0288   -0.1861 O   0  0  0  0  0  0  0  0  0  0  0  0
   -4.7359   -1.2251    0.0559 C   0  0  0  0  0  0  0  0  0  0  0  0
   -4.4241    0.0061   -0.5374 C   0  0  0  0  0  0  0  0  0  0  0  0
   -5.4199    0.9482   -0.7994 N   0  0  0  0  0  0  0  0  0  0  0  0
   -5.2208    2.1421   -1.6314 C   0  0  0  0  0  0  0  0  0  0  0  0
   -6.5982    2.8346   -1.7324 C   0  0  0  0  0  0  0  0  0  0  0  0
   -4.7696    1.7709   -3.0508 C   0  0  0  0  0  0  0  0  0  0  0  0
   -4.2516    3.1372   -0.9767 C   0  0  0  0  0  0  0  0  0  0  0  0
   -3.1346    0.3504   -0.7606 N   0  0  0  0  0  0  0  0  0  0  0  0
    1.5199    0.3161   -0.5479 C   0  0  0  0  0  0  0  0  0  0  0  0
  1  2  1  0
  2  3  1  0
  3  4  1  0
  3  5  1  0
  5  6  1  0
  6  7  1  0
  7  8  1  0
  7  9  1  0
  9 10  1  0
 10 11  2  0
 11 12  1  0
 12 13  2  0
 13 14  1  0
 14 15  1  0
 15 16  1  0
 16 17  2  0
 17 18  1  0
 18 19  1  0
 19 20  2  0
 20 21  1  0
 21 22  1  0
 22 23  1  0
 23 24  2  0
 23 25  1  0
 21 26  1  0
 26 27  2  0
 26 28  1  0
 28 29  1  0
 29 30  1  0
 30 31  1  0
 31 32  1  0
 31 33  1  0
 31 34  1  0
 29 35  2  0
 14 36  2  0
 36 10  1  0
 35 16  1  0
 28 18  2  0
M  END
>  <energy>  (286) 
2.10

>  <full_id>  (286) 
MOL00011885-001517-03_1

>  <mol_id>  (286) 
MOL00011885-001517-03

>  <act_mol>  (286) 
0

>  <act_conf>  (286) 
0

$$$$
MOL00012368-000557-04
     RDKit          3D

 27 30  0  0  0  0  0  0  0  0999 V2000
   -6.1859    3.7335    1.4472 C   0  0  0  0  0  0  0  0  0  0  0  0
   -5.9238    2.3347    0.9716 C   0  0  0  0  0  0  0  0  0  0  0  0
   -6.9631    1.3954    0.9262 C   0  0  0  0  0  0  0  0  0  0  0  0
   -6.7173    0.0844    0.5129 C   0  0  0  0  0  0  0  0  0  0  0  0
   -5.4247   -0.2918    0.1543 C   0  0  0  0  0  0  0  0  0  0  0  0
   -5.1674   -1.6020   -0.2616 N   0  0  0  0  0  0  0  0  0  0  0  0
   -3.9280   -2.0525   -0.6288 C   0  0  0  0  0  0  0  0  0  0  0  0
   -3.7575   -3.2136   -0.9902 O   0  0  0  0  0  0  0  0  0  0  0  0
   -2.7931   -1.0757   -0.5683 C   0  0  0  0  0  0  0  0  0  0  0  0
   -1.4595   -1.6448   -0.9789 C   0  0  0  0  0  0  0  0  0  0  0  0
   -0.3272   -0.7323   -0.7664 N   0  0  0  0  0  0  0  0  0  0  0  0
    0.9014   -1.2966   -1.3228 C   0  0  0  0  0  0  0  0  0  0  0  0
    2.0695   -0.3816   -1.0478 C   0  0  0  0  0  0  0  0  0  0  0  0
    2.2235    0.8101   -1.7594 C   0  0  0  0  0  0  0  0  0  0  0  0
    3.2994    1.6560   -1.4830 C   0  0  0  0  0  0  0  0  0  0  0  0
    4.2310    1.3437   -0.5018 C   0  0  0  0  0  0  0  0  0  0  0  0
    5.2552    2.1842   -0.2635 N   0  0  0  0  0  0  0  0  0  0  0  0
    6.1348    1.8323    0.7075 C   0  0  0  0  0  0  0  0  0  0  0  0
    7.2673    2.7808    0.9576 C   0  0  0  0  0  0  0  0  0  0  0  0
    5.9846    0.6493    1.4315 C   0  0  0  0  0  0  0  0  0  0  0  0
    6.9449    0.2476    2.5089 C   0  0  0  0  0  0  0  0  0  0  0  0
    4.9533   -0.2001    1.1944 N   0  0  0  0  0  0  0  0  0  0  0  0
    4.0797    0.1452    0.2303 C   0  0  0  0  0  0  0  0  0  0  0  0
    3.0060   -0.6919   -0.0516 C   0  0  0  0  0  0  0  0  0  0  0  0
   -3.0288    0.1887   -0.1711 C   0  0  0  0  0  0  0  0  0  0  0  0
   -4.3721    0.6267    0.2073 C   0  0  0  0  0  0  0  0  0  0  0  0
   -4.6246    1.9382    0.6212 C   0  0  0  0  0  0  0  0  0  0  0  0
  1  2  1  0
  2  3  2  0
  3  4  1  0
  4  5  2  0
  5  6  1  0
  6  7  1  0
  7  8  2  0
  7  9  1  0
  9 10  1  0
 10 11  1  0
 11 12  1  0
 12 13  1  0
 13 14  2  0
 14 15  1  0
 15 16  2  0
 16 17  1  0
 17 18  2  0
 18 19  1  0
 18 20  1  0
 20 21  1  0
 20 22  2  0
 22 23  1  0
 23 24  2  0
  9 25  2  0
 25 26  1  0
 26 27  2  0
 27  2  1  0
 26  5  1  0
 24 13  1  0
 23 16  1  0
M  END
>  <energy>  (287) 
70.06

>  <full_id>  (287) 
MOL00012368-000557-04_1

>  <mol_id>  (287) 
MOL00012368-000557-04

>  <act_mol>  (287) 
0

>  <act_conf>  (287) 
0

$$$$
MOL00012011-000207-04
     RDKit          3D

 33 35  0  0  0  0  0  0  0  0999 V2000
   -3.4251    3.5116   -1.4025 C   0  0  0  0  0  0  0  0  0  0  0  0
   -2.5878    3.1996   -0.2423 N   0  0  0  0  0  0  0  0  0  0  0  0
   -1.6729    4.2684    0.1549 C   0  0  0  0  0  0  0  0  0  0  0  0
   -3.3606    2.6711    0.8229 C   0  0  0  0  0  0  0  0  0  0  0  0
   -4.1367    3.5047    1.6458 C   0  0  0  0  0  0  0  0  0  0  0  0
   -4.9163    2.9747    2.6709 C   0  0  0  0  0  0  0  0  0  0  0  0
   -4.9382    1.5995    2.8882 C   0  0  0  0  0  0  0  0  0  0  0  0
   -4.1795    0.7349    2.0871 C   0  0  0  0  0  0  0  0  0  0  0  0
   -4.2148   -0.6511    2.3071 C   0  0  0  0  0  0  0  0  0  0  0  0
   -3.4596   -1.5196    1.5182 C   0  0  0  0  0  0  0  0  0  0  0  0
   -2.6442   -1.0155    0.5031 C   0  0  0  0  0  0  0  0  0  0  0  0
   -1.8501   -1.9800   -0.3130 C   0  0  0  0  0  0  0  0  0  0  0  0
   -2.2916   -3.1143   -0.4627 O   0  0  0  0  0  0  0  0  0  0  0  0
   -0.6453   -1.5022   -0.7888 N   0  0  0  0  0  0  0  0  0  0  0  0
    0.2912   -2.1560   -1.6291 C   0  0  0  0  0  0  0  0  0  0  0  0
    0.0084   -3.3882   -2.2356 C   0  0  0  0  0  0  0  0  0  0  0  0
    0.9367   -3.9995   -3.0819 C   0  0  0  0  0  0  0  0  0  0  0  0
    2.1506   -3.3794   -3.3324 C   0  0  0  0  0  0  0  0  0  0  0  0
    3.0304   -3.9606   -4.1579 F   0  0  0  0  0  0  0  0  0  0  0  0
    2.4655   -2.1613   -2.7467 C   0  0  0  0  0  0  0  0  0  0  0  0
    1.5466   -1.5451   -1.8819 C   0  0  0  0  0  0  0  0  0  0  0  0
    1.9018   -0.2420   -1.2375 C   0  0  0  0  0  0  0  0  0  0  0  0
    1.0186    0.5176   -0.8483 O   0  0  0  0  0  0  0  0  0  0  0  0
    3.2418    0.0204   -1.0584 N   0  0  0  0  0  0  0  0  0  0  0  0
    3.7078    1.1612   -0.2994 C   0  0  0  0  0  0  0  0  0  0  0  0
    3.5975    0.9639    1.2124 C   0  0  0  0  0  0  0  0  0  0  0  0
    4.2178   -0.3280    1.7455 C   0  0  0  0  0  0  0  0  0  0  0  0
    5.6469   -0.4279    1.5110 N   0  0  0  0  0  0  0  0  0  0  0  0
    6.1388   -1.0805    0.4180 C   0  0  0  0  0  0  0  0  0  0  0  0
    7.4900   -1.1869    0.4527 N   0  0  0  0  0  0  0  0  0  0  0  0
    5.4788   -1.5207   -0.5125 O   0  0  0  0  0  0  0  0  0  0  0  0
   -2.6167    0.3642    0.2651 C   0  0  0  0  0  0  0  0  0  0  0  0
   -3.3773    1.2648    1.0452 C   0  0  0  0  0  0  0  0  0  0  0  0
  1  2  1  0
  2  3  1  0
  2  4  1  0
  4  5  2  0
  5  6  1  0
  6  7  2  0
  7  8  1  0
  8  9  2  0
  9 10  1  0
 10 11  2  0
 11 12  1  0
 12 13  2  0
 12 14  1  0
 14 15  1  0
 15 16  2  0
 16 17  1  0
 17 18  2  0
 18 19  1  0
 18 20  1  0
 20 21  2  0
 21 22  1  0
 22 23  2  0
 22 24  1  0
 24 25  1  0
 25 26  1  0
 26 27  1  0
 27 28  1  0
 28 29  1  0
 29 30  1  0
 29 31  2  0
 11 32  1  0
 32 33  2  0
 33  4  1  0
 33  8  1  0
 21 15  1  0
M  END
>  <energy>  (288) 
-67.68

>  <full_id>  (288) 
MOL00012011-000207-04_1

>  <mol_id>  (288) 
MOL00012011-000207-04

>  <act_mol>  (288) 
0

>  <act_conf>  (288) 
0

$$$$
MOL00012282-001524-03
     RDKit          3D

 28 31  0  0  0  0  0  0  0  0999 V2000
   -6.6102    0.1645    0.8444 N   0  0  0  0  0  0  0  0  0  0  0  0
   -5.4835    0.2416    0.0366 C   0  0  0  0  0  0  0  0  0  0  0  0
   -5.6550    0.2547   -1.3048 N   0  0  0  0  0  0  0  0  0  0  0  0
   -4.5806    0.3130   -2.1351 C   0  0  0  0  0  0  0  0  0  0  0  0
   -4.8196    0.2965   -3.6339 C   0  0  0  0  0  0  0  0  0  0  0  0
   -6.2015    0.4524   -4.2262 C   0  0  0  0  0  0  0  0  0  0  0  0
   -5.5217   -0.8857   -4.2644 C   0  0  0  0  0  0  0  0  0  0  0  0
   -3.2852    0.3726   -1.7314 N   0  0  0  0  0  0  0  0  0  0  0  0
   -3.1662    0.3865   -0.3946 C   0  0  0  0  0  0  0  0  0  0  0  0
   -4.1805    0.3223    0.5407 C   0  0  0  0  0  0  0  0  0  0  0  0
   -3.6706    0.3606    1.8208 N   0  0  0  0  0  0  0  0  0  0  0  0
   -2.3655    0.4455    1.6618 C   0  0  0  0  0  0  0  0  0  0  0  0
   -2.0112    0.4533    0.3393 N   0  0  0  0  0  0  0  0  0  0  0  0
   -0.6738    0.5480   -0.2191 C   0  0  1  0  0  0  0  0  0  0  0  0
    0.2981    0.5065    0.8479 O   0  0  0  0  0  0  0  0  0  0  0  0
    1.3529   -0.4090    0.4612 C   0  0  2  0  0  0  0  0  0  0  0  0
    2.7091    0.1809    0.8746 C   0  0  0  0  0  0  0  0  0  0  0  0
    3.8409   -0.6477    0.4331 N   0  0  0  0  0  0  0  0  0  0  0  0
    5.1078   -0.0993    0.9476 C   0  0  0  0  0  0  0  0  0  0  0  0
    6.2770   -0.9664    0.5034 C   0  0  0  0  0  0  0  0  0  0  0  0
    7.8094   -0.2743    1.1072 S   0  0  0  0  0  6  0  0  0  0  0  0
    8.9343   -1.3743    0.5258 N   0  0  0  0  0  0  0  0  0  0  0  0
    8.0922    0.9610    0.4155 O   0  0  0  0  0  0  0  0  0  0  0  0
    7.8713   -0.3867    2.5446 O   0  0  0  0  0  0  0  0  0  0  0  0
    1.1723   -0.6751   -1.0318 C   0  0  2  0  0  0  0  0  0  0  0  0
    1.7748    0.3412   -1.8429 O   0  0  0  0  0  0  0  0  0  0  0  0
   -0.3351   -0.6016   -1.1758 C   0  0  2  0  0  0  0  0  0  0  0  0
   -0.6811   -0.3575   -2.5411 O   0  0  0  0  0  0  0  0  0  0  0  0
  1  2  1  0
  2  3  2  0
  3  4  1  0
  5  4  1  0
  5  6  1  0
  6  7  1  0
  4  8  2  0
  8  9  1  0
  9 10  2  0
 10 11  1  0
 11 12  2  0
 12 13  1  0
 14 13  1  1
 14 15  1  0
 15 16  1  0
 16 17  1  6
 17 18  1  0
 18 19  1  0
 19 20  1  0
 20 21  1  0
 21 22  1  0
 21 23  2  0
 21 24  2  0
 16 25  1  0
 25 26  1  6
 25 27  1  0
 27 28  1  6
 10  2  1  0
 27 14  1  0
  7  5  1  0
 13  9  1  0
M  END
>  <energy>  (289) 
5.15

>  <full_id>  (289) 
MOL00012282-001524-03_1

>  <mol_id>  (289) 
MOL00012282-001524-03

>  <act_mol>  (289) 
0

>  <act_conf>  (289) 
0

$$$$
MOL00012337-000617-04
     RDKit          3D

 29 33  0  0  0  0  0  0  0  0999 V2000
   -0.4863   -4.4016    1.2041 C   0  0  0  0  0  0  0  0  0  0  0  0
   -1.3634   -3.2462    1.1222 N   0  0  0  0  0  0  0  0  0  0  0  0
   -0.7035   -2.0212    0.8642 C   0  0  0  0  0  0  0  0  0  0  0  0
    0.6465   -2.0172    0.7762 N   0  0  0  0  0  0  0  0  0  0  0  0
    1.2941   -0.8606    0.5206 C   0  0  0  0  0  0  0  0  0  0  0  0
    2.6820   -0.9806    0.4477 N   0  0  0  0  0  0  0  0  0  0  0  0
    3.6721   -0.0971    0.2126 C   0  0  0  0  0  0  0  0  0  0  0  0
    5.0315   -0.5076    0.2101 C   0  0  0  0  0  0  0  0  0  0  0  0
    5.7497    0.6279   -0.0630 C   0  0  0  0  0  0  0  0  0  0  0  0
    7.2823    0.7607   -0.1675 C   0  0  0  0  0  0  0  0  0  0  0  0
    7.8781    1.3779   -1.4046 C   0  0  0  0  0  0  0  0  0  0  0  0
    8.0224   -0.0955   -1.1599 C   0  0  0  0  0  0  0  0  0  0  0  0
    4.8370    1.6266   -0.1953 N   0  0  0  0  0  0  0  0  0  0  0  0
    3.5700    1.2129   -0.0391 N   0  0  0  0  0  0  0  0  0  0  0  0
    0.6060    0.3289    0.3462 C   0  0  0  0  0  0  0  0  0  0  0  0
   -0.7887    0.3541    0.4508 C   0  0  0  0  0  0  0  0  0  0  0  0
   -1.5033    1.5568    0.2823 C   0  0  0  0  0  0  0  0  0  0  0  0
   -2.8968    1.6006    0.3953 C   0  0  0  0  0  0  0  0  0  0  0  0
   -3.6582    2.7278    0.2305 O   0  0  0  0  0  0  0  0  0  0  0  0
   -2.9810    3.9386   -0.0813 C   0  0  0  0  0  0  0  0  0  0  0  0
   -3.5963    0.4243    0.7001 C   0  0  0  0  0  0  0  0  0  0  0  0
   -5.1047    0.3994    0.8308 C   0  0  0  0  0  0  0  0  0  0  0  0
   -5.7801    0.0029   -0.4341 C   0  0  0  0  0  0  0  0  0  0  0  0
   -6.0365    0.6640   -1.6178 C   0  0  0  0  0  0  0  0  0  0  0  0
   -6.7204   -0.2548   -2.4486 C   0  0  0  0  0  0  0  0  0  0  0  0
   -6.8394   -1.4148   -1.7201 C   0  0  0  0  0  0  0  0  0  0  0  0
   -6.2724   -1.2688   -0.4951 O   0  0  0  0  0  0  0  0  0  0  0  0
   -2.8813   -0.7784    0.8570 C   0  0  0  0  0  0  0  0  0  0  0  0
   -1.4742   -0.8398    0.7287 C   0  0  0  0  0  0  0  0  0  0  0  0
  1  2  1  0
  2  3  1  0
  3  4  2  0
  4  5  1  0
  5  6  1  0
  6  7  1  0
  7  8  1  0
  8  9  2  0
 10  9  1  0
 10 11  1  0
 11 12  1  0
  9 13  1  0
 13 14  1  0
  5 15  2  0
 15 16  1  0
 16 17  2  0
 17 18  1  0
 18 19  1  0
 19 20  1  0
 18 21  2  0
 21 22  1  0
 22 23  1  0
 23 24  2  0
 24 25  1  0
 25 26  2  0
 26 27  1  0
 21 28  1  0
 28 29  2  0
 29  3  1  0
 14  7  2  0
 29 16  1  0
 12 10  1  0
 27 23  1  0
M  END
>  <energy>  (290) 
-33.69

>  <full_id>  (290) 
MOL00012337-000617-04_1

>  <mol_id>  (290) 
MOL00012337-000617-04

>  <act_mol>  (290) 
0

>  <act_conf>  (290) 
0

$$$$
MOL00012393-002564-03
     RDKit          3D

 34 37  0  0  0  0  0  0  0  0999 V2000
   -3.6415    4.8522   -0.1856 C   0  0  0  0  0  0  0  0  0  0  0  0
   -2.9903    3.5064   -0.4591 C   0  0  0  0  0  0  0  0  0  0  0  0
   -2.7596    2.7238    0.8356 C   0  0  0  0  0  0  0  0  0  0  0  0
   -2.1315    1.4209    0.5887 N   0  0  0  0  0  0  0  0  0  0  0  0
   -0.7460    1.3768    0.6072 C   0  0  0  0  0  0  0  0  0  0  0  0
   -0.0534    2.3803    0.8109 O   0  0  0  0  0  0  0  0  0  0  0  0
   -0.0578    0.0713    0.3696 C   0  0  0  0  0  0  0  0  0  0  0  0
    1.4751    0.0184    0.4208 C   0  0  0  0  0  0  0  0  0  0  0  0
    2.0377   -1.1163    0.1180 N   0  0  0  0  0  0  0  0  0  0  0  0
    3.6423   -1.3130    0.2291 S   0  0  0  0  0  4  0  0  0  0  0  0
    4.0854   -1.9301   -1.0041 O   0  0  0  0  0  1  0  0  0  0  0  0
    3.9146   -1.9114    1.5182 O   0  0  0  0  0  1  0  0  0  0  0  0
    4.3805    0.2712    0.2537 C   0  0  0  0  0  0  0  0  0  0  0  0
    3.5400    1.3429    0.5340 C   0  0  0  0  0  0  0  0  0  0  0  0
    4.0900    2.6303    0.5858 C   0  0  0  0  0  0  0  0  0  0  0  0
    5.4420    2.8419    0.3040 C   0  0  0  0  0  0  0  0  0  0  0  0
    6.2644    1.7655   -0.0160 C   0  0  0  0  0  0  0  0  0  0  0  0
    7.5617    2.0792   -0.3130 O   0  0  0  0  0  0  0  0  0  0  0  0
    5.7375    0.4697   -0.0108 C   0  0  0  0  0  0  0  0  0  0  0  0
    6.6366   -0.6390   -0.2585 N   0  0  0  0  0  4  0  0  0  0  0  0
    7.4066   -0.5171   -1.2233 O   0  0  0  0  0  0  0  0  0  0  0  0
    6.6442   -1.5688    0.5518 O   0  0  0  0  0  1  0  0  0  0  0  0
    2.1766    1.1566    0.7647 N   0  0  0  0  0  0  0  0  0  0  0  0
   -0.8006   -1.0263    0.1199 C   0  0  0  0  0  0  0  0  0  0  0  0
   -0.2526   -2.2712   -0.1284 O   0  0  0  0  0  0  0  0  0  0  0  0
   -2.2830   -0.9756    0.0737 C   0  0  0  0  0  0  0  0  0  0  0  0
   -3.1017   -2.1007   -0.1871 C   0  0  0  0  0  0  0  0  0  0  0  0
   -2.6085   -3.3704   -0.3882 O   0  0  0  0  0  0  0  0  0  0  0  0
   -2.4713   -4.0477    0.8660 C   0  0  0  0  0  0  0  0  0  0  0  0
   -4.4882   -1.9699   -0.3187 C   0  0  0  0  0  0  0  0  0  0  0  0
   -5.2631   -3.0442   -0.6549 O   0  0  0  0  0  0  0  0  0  0  0  0
   -5.1070   -0.7536   -0.1258 C   0  0  0  0  0  0  0  0  0  0  0  0
   -4.3263    0.3580    0.1821 C   0  0  0  0  0  0  0  0  0  0  0  0
   -2.9208    0.2688    0.2828 C   0  0  0  0  0  0  0  0  0  0  0  0
  1  2  1  0
  2  3  1  0
  3  4  1  0
  4  5  1  0
  5  6  2  0
  5  7  1  0
  7  8  1  0
  8  9  2  0
  9 10  1  0
 10 11  1  0
 10 12  1  0
 10 13  1  0
 13 14  2  0
 14 15  1  0
 15 16  2  0
 16 17  1  0
 17 18  1  0
 17 19  2  0
 19 20  1  0
 20 21  2  0
 20 22  1  0
 14 23  1  0
  7 24  2  0
 24 25  1  0
 24 26  1  0
 26 27  2  0
 27 28  1  0
 28 29  1  0
 27 30  1  0
 30 31  1  0
 30 32  2  0
 32 33  1  0
 33 34  2  0
 34  4  1  0
 23  8  1  0
 34 26  1  0
 19 13  1  0
M  CHG  4  11  -1  12  -1  20   1  22  -1
M  END
>  <energy>  (291) 
-23.60

>  <full_id>  (291) 
MOL00012393-002564-03_1

>  <mol_id>  (291) 
MOL00012393-002564-03

>  <act_mol>  (291) 
0

>  <act_conf>  (291) 
0

$$$$
MOL00012189-000054-04
     RDKit          3D

 32 35  0  0  0  0  0  0  0  0999 V2000
    8.6930    2.2351    0.4399 C   0  0  0  0  0  0  0  0  0  0  0  0
    8.9875    0.7992    0.0288 C   0  0  0  0  0  0  0  0  0  0  0  0
    8.2357    0.3673   -1.2341 C   0  0  0  0  0  0  0  0  0  0  0  0
    6.7423    0.2408   -1.0426 C   0  0  0  0  0  0  0  0  0  0  0  0
    5.9115    1.2636   -1.5289 C   0  0  0  0  0  0  0  0  0  0  0  0
    4.5245    1.2001   -1.3694 C   0  0  0  0  0  0  0  0  0  0  0  0
    3.9396    0.1035   -0.7289 C   0  0  0  0  0  0  0  0  0  0  0  0
    2.4576    0.0723   -0.5796 C   0  0  0  0  0  0  0  0  0  0  0  0
    1.8378    1.1305   -0.5107 O   0  0  0  0  0  0  0  0  0  0  0  0
    1.8810   -1.1837   -0.5752 N   0  0  0  0  0  0  0  0  0  0  0  0
    0.5458   -1.5043   -0.4270 C   0  0  0  0  0  0  0  0  0  0  0  0
   -0.4361   -0.6456   -0.1112 C   0  0  0  0  0  0  0  0  0  0  0  0
   -1.8316   -1.0875   -0.0023 C   0  0  0  0  0  0  0  0  0  0  0  0
   -2.9060   -0.2265    0.2963 C   0  0  0  0  0  0  0  0  0  0  0  0
   -2.7256    1.1209    0.5411 N   0  0  0  0  0  0  0  0  0  0  0  0
   -3.6872    2.0211    1.1831 C   0  0  0  0  0  0  0  0  0  0  0  0
   -4.9787    2.2388    0.3650 C   0  0  0  0  0  0  0  0  0  0  0  0
   -5.9148    1.0799    0.4733 N   0  0  0  0  0  0  0  0  0  0  0  0
   -6.6907    1.1402    1.7397 C   0  0  0  0  0  0  0  0  0  0  0  0
   -7.8677    0.2175    1.4600 C   0  0  0  0  0  0  0  0  0  0  0  0
   -8.0496    0.2544   -0.0518 C   0  0  0  0  0  0  0  0  0  0  0  0
   -6.9783    1.2088   -0.5524 C   0  0  0  0  0  0  0  0  0  0  0  0
   -4.1263   -0.7683    0.3771 N   0  0  0  0  0  4  0  0  0  0  0  0
   -4.3300   -2.0666    0.1772 C   0  0  0  0  0  0  0  0  0  0  0  0
   -3.3645   -2.9513   -0.1105 N   0  0  0  0  0  0  0  0  0  0  0  0
   -2.1282   -2.4357   -0.1956 C   0  0  0  0  0  0  0  0  0  0  0  0
   -1.1019   -3.3209   -0.4996 N   0  0  0  0  0  0  0  0  0  0  0  0
    0.2079   -2.9587   -0.6317 C   0  0  0  0  0  0  0  0  0  0  0  0
    1.0879   -3.7693   -0.9062 O   0  0  0  0  0  0  0  0  0  0  0  0
    4.7553   -0.9135   -0.2254 C   0  0  0  0  0  0  0  0  0  0  0  0
    6.1399   -0.8410   -0.3871 C   0  0  0  0  0  0  0  0  0  0  0  0
    6.8449   -1.8886    0.1348 O   0  0  0  0  0  0  0  0  0  0  0  0
  1  2  1  0
  2  3  1  0
  3  4  1  0
  4  5  2  0
  5  6  1  0
  6  7  2  0
  7  8  1  0
  8  9  2  0
  8 10  1  0
 10 11  1  0
 11 12  2  0
 12 13  1  0
 13 14  2  0
 14 15  1  0
 15 16  1  0
 16 17  1  0
 17 18  1  0
 18 19  1  0
 19 20  1  0
 20 21  1  0
 21 22  1  0
 14 23  1  0
 23 24  2  0
 24 25  1  0
 25 26  2  0
 26 27  1  0
 27 28  1  0
 28 29  2  0
  7 30  1  0
 30 31  2  0
 31 32  1  0
 31  4  1  0
 28 11  1  0
 26 13  1  0
 22 18  1  0
M  CHG  1  23   1
M  END
>  <energy>  (292) 
-1.18

>  <full_id>  (292) 
MOL00012189-000054-04_1

>  <mol_id>  (292) 
MOL00012189-000054-04

>  <act_mol>  (292) 
0

>  <act_conf>  (292) 
0

$$$$
MOL00012535-000791-03
     RDKit          3D

 23 24  0  0  0  0  0  0  0  0999 V2000
   -4.9130    2.4996    1.0760 C   0  0  0  0  0  0  0  0  0  0  0  0
   -4.2059    1.1633    1.2296 C   0  0  0  0  0  0  0  0  0  0  0  0
   -3.4098    0.8095   -0.0240 C   0  0  0  0  0  0  0  0  0  0  0  0
   -2.6984   -0.4571    0.1127 N   0  0  0  0  0  0  0  0  0  0  0  0
   -3.2194   -1.6546   -0.3187 C   0  0  0  0  0  0  0  0  0  0  0  0
   -2.2969   -2.6446   -0.0568 C   0  0  0  0  0  0  0  0  0  0  0  0
   -2.4582   -4.0465   -0.3494 N   0  0  0  0  0  4  0  0  0  0  0  0
   -1.5135   -4.7886   -0.0504 O   0  0  0  0  0  0  0  0  0  0  0  0
   -3.5206   -4.3980   -0.8783 O   0  0  0  0  0  1  0  0  0  0  0  0
   -1.1793   -2.0144    0.5503 C   0  0  0  0  0  0  0  0  0  0  0  0
   -1.4306   -0.6470    0.6465 C   0  0  0  0  0  0  0  0  0  0  0  0
   -0.5900    0.4068    1.2012 C   0  0  0  0  0  0  0  0  0  0  0  0
   -0.9830    1.5509    1.4076 O   0  0  0  0  0  0  0  0  0  0  0  0
    0.7110    0.0356    1.4595 N   0  0  0  0  0  0  0  0  0  0  0  0
    1.7163    1.0060    1.8546 C   0  0  0  0  0  0  0  0  0  0  0  0
    2.2554    1.8192    0.6720 C   0  0  0  0  0  0  0  0  0  0  0  0
    2.9345    0.9544   -0.3650 C   0  0  0  0  0  0  0  0  0  0  0  0
    2.2672    0.6050   -1.5477 C   0  0  0  0  0  0  0  0  0  0  0  0
    2.8841   -0.2178   -2.4927 C   0  0  0  0  0  0  0  0  0  0  0  0
    4.1726   -0.7011   -2.2662 C   0  0  0  0  0  0  0  0  0  0  0  0
    4.8340   -0.3548   -1.0928 C   0  0  0  0  0  0  0  0  0  0  0  0
    6.0932   -0.8060   -0.8275 O   0  0  0  0  0  0  0  0  0  0  0  0
    4.2286    0.4645   -0.1452 C   0  0  0  0  0  0  0  0  0  0  0  0
  1  2  1  0
  2  3  1  0
  3  4  1  0
  4  5  1  0
  5  6  2  0
  6  7  1  0
  7  8  2  0
  7  9  1  0
  6 10  1  0
 10 11  2  0
 11 12  1  0
 12 13  2  0
 12 14  1  0
 14 15  1  0
 15 16  1  0
 16 17  1  0
 17 18  2  0
 18 19  1  0
 19 20  2  0
 20 21  1  0
 21 22  1  0
 21 23  2  0
 11  4  1  0
 23 17  1  0
M  CHG  2   7   1   9  -1
M  END
>  <energy>  (293) 
17.63

>  <full_id>  (293) 
MOL00012535-000791-03_1

>  <mol_id>  (293) 
MOL00012535-000791-03

>  <act_mol>  (293) 
0

>  <act_conf>  (293) 
0

$$$$
MOL00012361-001405-02
     RDKit          3D

 35 39  0  0  0  0  0  0  0  0999 V2000
  -11.0984    0.7182    4.0156 N   0  0  0  0  0  0  0  0  0  0  0  0
  -10.3204    0.4882    3.1860 C   0  0  0  0  0  0  0  0  0  0  0  0
   -9.3510    0.2046    2.1685 C   0  0  0  0  0  0  0  0  0  0  0  0
   -8.9594   -1.1142    1.9195 C   0  0  0  0  0  0  0  0  0  0  0  0
   -8.0087   -1.3901    0.9324 C   0  0  0  0  0  0  0  0  0  0  0  0
   -7.4457   -0.3513    0.1781 C   0  0  0  0  0  0  0  0  0  0  0  0
   -6.4015   -0.6403   -0.8667 C   0  0  0  0  0  0  0  0  0  0  0  0
   -5.0770   -0.4685   -0.3280 N   0  0  0  0  0  0  0  0  0  0  0  0
   -3.9620   -0.4801   -1.1302 C   0  0  0  0  0  0  0  0  0  0  0  0
   -3.9839   -0.5377   -2.3552 O   0  0  0  0  0  0  0  0  0  0  0  0
   -2.6717   -0.4278   -0.4038 C   0  0  0  0  0  0  0  0  0  0  0  0
   -2.6753   -0.4213    0.9531 N   0  0  0  0  0  0  0  0  0  0  0  0
   -1.4761   -0.3779    1.5675 C   0  0  0  0  0  0  0  0  0  0  0  0
   -0.2566   -0.3438    1.0056 N   0  0  0  0  0  0  0  0  0  0  0  0
   -0.2908   -0.3502   -0.3485 C   0  0  0  0  0  0  0  0  0  0  0  0
    0.7362   -0.3189   -1.3375 C   0  0  0  0  0  0  0  0  0  0  0  0
    2.0484   -0.2577   -1.0244 N   0  0  0  0  0  0  0  0  0  0  0  0
    3.0566   -0.5429   -2.0215 C   0  0  0  0  0  0  0  0  0  0  0  0
    4.4261   -0.3227   -1.4213 C   0  0  0  0  0  0  0  0  0  0  0  0
    5.2212   -1.4042   -1.0284 C   0  0  0  0  0  0  0  0  0  0  0  0
    6.4791   -1.1890   -0.4548 C   0  0  0  0  0  0  0  0  0  0  0  0
    6.9747    0.1100   -0.2518 C   0  0  0  0  0  0  0  0  0  0  0  0
    8.2935    0.3329    0.3508 C   0  0  0  0  0  0  0  0  0  0  0  0
    9.2383    1.1934   -0.1853 C   0  0  0  0  0  0  0  0  0  0  0  0
   10.4608    1.4215    0.3446 N   0  0  0  0  0  0  0  0  0  0  0  0
   10.7407    0.7441    1.4666 C   0  0  0  0  0  0  0  0  0  0  0  0
    9.9236   -0.1171    2.0889 N   0  0  0  0  0  0  0  0  0  0  0  0
    8.7152   -0.2970    1.5105 C   0  0  0  0  0  0  0  0  0  0  0  0
    6.1644    1.1882   -0.6421 C   0  0  0  0  0  0  0  0  0  0  0  0
    4.9068    0.9762   -1.2157 C   0  0  0  0  0  0  0  0  0  0  0  0
    0.2258   -0.3578   -2.5740 N   0  0  0  0  0  0  0  0  0  0  0  0
   -1.1070   -0.3937   -2.3764 N   0  0  0  0  0  0  0  0  0  0  0  0
   -1.4666   -0.3945   -1.0632 C   0  0  0  0  0  0  0  0  0  0  0  0
   -7.8364    0.9697    0.4403 C   0  0  0  0  0  0  0  0  0  0  0  0
   -8.7865    1.2465    1.4270 C   0  0  0  0  0  0  0  0  0  0  0  0
  1  2  3  0
  2  3  1  0
  3  4  2  0
  4  5  1  0
  5  6  2  0
  6  7  1  0
  7  8  1  0
  8  9  1  0
  9 10  2  0
  9 11  1  0
 11 12  2  0
 12 13  1  0
 13 14  2  0
 14 15  1  0
 15 16  1  0
 16 17  1  0
 17 18  1  0
 18 19  1  0
 19 20  2  0
 20 21  1  0
 21 22  2  0
 22 23  1  0
 23 24  2  0
 24 25  1  0
 25 26  2  0
 26 27  1  0
 27 28  2  0
 22 29  1  0
 29 30  2  0
 16 31  2  0
 31 32  1  0
 32 33  1  0
  6 34  1  0
 34 35  2  0
 35  3  1  0
 33 11  1  0
 33 15  2  0
 30 19  1  0
 28 23  1  0
M  END
>  <energy>  (294) 
17.40

>  <full_id>  (294) 
MOL00012361-001405-02_1

>  <mol_id>  (294) 
MOL00012361-001405-02

>  <act_mol>  (294) 
0

>  <act_conf>  (294) 
0

$$$$
MOL00012163-001219-04
     RDKit          3D

 33 36  0  0  0  0  0  0  0  0999 V2000
    4.0234    0.6636    2.1595 C   0  0  0  0  0  0  0  0  0  0  0  0
    3.1786    1.6267    1.3377 C   0  0  0  0  0  0  0  0  0  0  0  0
    2.7243    1.0002    0.0913 N   0  0  0  0  0  0  0  0  0  0  0  0
    3.6081    1.0488   -0.9911 C   0  0  0  0  0  0  0  0  0  0  0  0
    4.4578    1.9364   -1.0978 O   0  0  0  0  0  0  0  0  0  0  0  0
    3.5377   -0.0007   -1.9153 N   0  0  0  0  0  0  0  0  0  0  0  0
    3.0047   -1.3211   -1.5706 C   0  0  0  0  0  0  0  0  0  0  0  0
    3.6962   -2.5299   -2.2032 C   0  0  0  0  0  0  0  0  0  0  0  0
    5.2134   -2.5520   -2.0111 C   0  0  0  0  0  0  0  0  0  0  0  0
    6.0127   -1.7568   -3.0560 C   0  0  1  0  0  0  0  0  0  0  0  0
    5.7887   -2.3015   -4.4011 N   0  0  0  0  0  0  0  0  0  0  0  0
    5.7444   -0.2487   -3.0356 C   0  0  0  0  0  0  0  0  0  0  0  0
    4.2757    0.1507   -3.1660 C   0  0  0  0  0  0  0  0  0  0  0  0
    1.3151    0.7813   -0.0625 C   0  0  0  0  0  0  0  0  0  0  0  0
    0.6709    1.0190   -1.2812 C   0  0  0  0  0  0  0  0  0  0  0  0
   -0.7059    0.7986   -1.4217 C   0  0  0  0  0  0  0  0  0  0  0  0
   -1.4838    0.3265   -0.3556 C   0  0  0  0  0  0  0  0  0  0  0  0
   -2.8610    0.1476   -0.5565 N   0  0  0  0  0  0  0  0  0  0  0  0
   -3.9162   -0.1248    0.3279 C   0  0  0  0  0  0  0  0  0  0  0  0
   -3.7758   -0.0148    1.6749 N   0  0  0  0  0  0  0  0  0  0  0  0
   -4.8010   -0.2604    2.5205 C   0  0  0  0  0  0  0  0  0  0  0  0
   -4.5626   -0.1333    3.8961 N   0  0  0  0  0  0  0  0  0  0  0  0
   -5.7643   -0.0033    4.7048 C   0  0  0  0  0  0  0  0  0  0  0  0
   -3.4572    0.7514    4.2259 C   0  0  0  0  0  0  0  0  0  0  0  0
   -6.0267   -0.6383    2.1218 N   0  0  0  0  0  0  0  0  0  0  0  0
   -6.1537   -0.7340    0.7962 C   0  0  0  0  0  0  0  0  0  0  0  0
   -7.3041   -1.0971    0.1535 N   0  0  0  0  0  0  0  0  0  0  0  0
   -7.1039   -1.0927   -1.2071 C   0  0  0  0  0  0  0  0  0  0  0  0
   -8.1806   -1.4517   -2.1617 C   0  0  0  0  0  0  0  0  0  0  0  0
   -5.7880   -0.7246   -1.4218 C   0  0  0  0  0  0  0  0  0  0  0  0
   -5.1809   -0.4965   -0.1531 C   0  0  0  0  0  0  0  0  0  0  0  0
   -0.8397    0.1141    0.8632 C   0  0  0  0  0  0  0  0  0  0  0  0
    0.5375    0.3366    1.0109 C   0  0  0  0  0  0  0  0  0  0  0  0
  1  2  1  0
  2  3  1  0
  3  4  1  0
  4  5  2  0
  4  6  1  0
  6  7  1  0
  7  8  1  0
  8  9  1  0
  9 10  1  0
 10 11  1  6
 10 12  1  0
 12 13  1  0
  3 14  1  0
 14 15  2  0
 15 16  1  0
 16 17  2  0
 17 18  1  0
 18 19  1  0
 19 20  2  0
 20 21  1  0
 21 22  1  0
 22 23  1  0
 22 24  1  0
 21 25  2  0
 25 26  1  0
 26 27  1  0
 27 28  1  0
 28 29  1  0
 28 30  2  0
 30 31  1  0
 17 32  1  0
 32 33  2  0
 13  6  1  0
 33 14  1  0
 31 19  1  0
 31 26  2  0
M  END
>  <energy>  (295) 
-88.66

>  <full_id>  (295) 
MOL00012163-001219-04_1

>  <mol_id>  (295) 
MOL00012163-001219-04

>  <act_mol>  (295) 
0

>  <act_conf>  (295) 
0

$$$$
MOL00012481-001150-04
     RDKit          3D

 27 30  0  0  0  0  0  0  0  0999 V2000
   -2.3600   -4.4886    2.3459 C   0  0  0  0  0  0  0  0  0  0  0  0
   -2.6755   -3.3711    1.4322 C   0  0  0  0  0  0  0  0  0  0  0  0
   -2.0793   -2.1466    1.2278 C   0  0  0  0  0  0  0  0  0  0  0  0
   -2.8383   -1.5195    0.2130 C   0  0  0  0  0  0  0  0  0  0  0  0
   -2.6349   -0.2873   -0.2977 N   0  0  0  0  0  0  0  0  0  0  0  0
   -1.4356    0.4594   -0.3835 C   0  0  0  0  0  0  0  0  0  0  0  0
   -0.2637   -0.1589   -0.1499 N   0  0  0  0  0  0  0  0  0  0  0  0
    0.8615    0.5631   -0.2497 C   0  0  0  0  0  0  0  0  0  0  0  0
    2.1450   -0.1273   -0.0058 C   0  0  0  0  0  0  0  0  0  0  0  0
    3.3691    0.5675   -0.0121 C   0  0  0  0  0  0  0  0  0  0  0  0
    4.5859   -0.0853    0.2196 C   0  0  0  0  0  0  0  0  0  0  0  0
    4.6177   -1.4606    0.4726 C   0  0  0  0  0  0  0  0  0  0  0  0
    5.9275   -2.1707    0.6945 C   0  0  0  0  0  0  0  0  0  0  0  0
    6.4912   -2.6449   -0.5638 N   0  0  0  0  0  0  0  0  0  0  0  0
    3.4128   -2.1709    0.4731 C   0  0  0  0  0  0  0  0  0  0  0  0
    2.1993   -1.5125    0.2409 C   0  0  0  0  0  0  0  0  0  0  0  0
    0.8974    1.8698   -0.5578 N   0  0  0  0  0  0  0  0  0  0  0  0
   -0.2669    2.4879   -0.7663 C   0  0  0  0  0  0  0  0  0  0  0  0
   -0.2420    3.8419   -1.0715 C   0  0  0  0  0  0  0  0  0  0  0  0
   -1.4175    4.5594   -1.2902 C   0  0  0  0  0  0  0  0  0  0  0  0
   -1.3692    5.8920   -1.5870 O   0  0  0  0  0  0  0  0  0  0  0  0
   -2.6602    3.9390   -1.2055 C   0  0  0  0  0  0  0  0  0  0  0  0
   -3.9296    4.7095   -1.4226 C   0  0  0  0  0  0  0  0  0  0  0  0
   -2.6952    2.5744   -0.8984 C   0  0  0  0  0  0  0  0  0  0  0  0
   -1.5012    1.8329   -0.6866 C   0  0  0  0  0  0  0  0  0  0  0  0
   -3.8594   -2.2896   -0.1720 N   0  0  0  0  0  0  0  0  0  0  0  0
   -3.7304   -3.4035    0.5653 N   0  0  0  0  0  0  0  0  0  0  0  0
  1  2  1  0
  2  3  2  0
  3  4  1  0
  4  5  1  0
  5  6  1  0
  6  7  2  0
  7  8  1  0
  8  9  1  0
  9 10  2  0
 10 11  1  0
 11 12  2  0
 12 13  1  0
 13 14  1  0
 12 15  1  0
 15 16  2  0
  8 17  2  0
 17 18  1  0
 18 19  2  0
 19 20  1  0
 20 21  1  0
 20 22  2  0
 22 23  1  0
 22 24  1  0
 24 25  2  0
  4 26  2  0
 26 27  1  0
 27  2  1  0
 25  6  1  0
 16  9  1  0
 25 18  1  0
M  END
>  <energy>  (296) 
-29.65

>  <full_id>  (296) 
MOL00012481-001150-04_1

>  <mol_id>  (296) 
MOL00012481-001150-04

>  <act_mol>  (296) 
0

>  <act_conf>  (296) 
0

$$$$
MOL00012547-003116-02
     RDKit          3D

 31 34  0  0  0  0  0  0  0  0999 V2000
    0.8609   -0.4545    0.1948 O   0  0  0  0  0  0  0  0  0  0  0  0
    1.0738    0.6063   -0.3854 C   0  0  0  0  0  0  0  0  0  0  0  0
    0.0946    1.5472   -0.6834 N   0  0  0  0  0  0  0  0  0  0  0  0
   -1.2779    1.4836   -0.3759 C   0  0  0  0  0  0  0  0  0  0  0  0
   -2.0826    2.5454   -0.7909 C   0  0  0  0  0  0  0  0  0  0  0  0
   -3.4504    2.5349   -0.5120 C   0  0  0  0  0  0  0  0  0  0  0  0
   -3.9888    1.4500    0.1730 C   0  0  0  0  0  0  0  0  0  0  0  0
   -5.4531    1.4730    0.5110 C   0  0  0  0  0  0  0  0  0  0  0  0
   -5.9854    2.5825    0.6225 O   0  0  0  0  0  0  0  0  0  0  0  0
   -6.1899    0.2896    0.6819 N   0  0  0  0  0  0  0  0  0  0  0  0
   -7.4791    0.4138    1.3681 C   0  0  0  0  0  0  0  0  0  0  0  0
   -8.4497   -0.7379    1.0594 C   0  0  0  0  0  0  0  0  0  0  0  0
   -7.8438   -2.0679    1.2525 N   0  0  0  0  0  0  0  0  0  0  0  0
   -6.6575   -2.1664    0.3851 C   0  0  0  0  0  0  0  0  0  0  0  0
   -5.6126   -1.0614    0.6379 C   0  0  0  0  0  0  0  0  0  0  0  0
   -3.2301    0.4106    0.6034 N   0  0  0  0  0  0  0  0  0  0  0  0
   -1.9025    0.4493    0.3172 C   0  0  0  0  0  0  0  0  0  0  0  0
    2.3907    1.0083   -0.8418 C   0  0  0  0  0  0  0  0  0  0  0  0
    2.6800    2.1227   -1.4829 N   0  0  0  0  0  0  0  0  0  0  0  0
    4.0386    2.0838   -1.7162 N   0  0  0  0  0  0  0  0  0  0  0  0
    4.4862    0.9578   -1.1943 C   0  0  0  0  0  0  0  0  0  0  0  0
    6.1515    0.4716   -1.2356 S   0  0  0  0  0  0  0  0  0  0  0  0
    6.0545   -1.1008   -0.3332 C   0  0  0  0  0  0  0  0  0  0  0  0
    7.4006   -1.7663   -0.2290 C   0  0  0  0  0  0  0  0  0  0  0  0
    7.9211   -2.5217   -1.2922 C   0  0  0  0  0  0  0  0  0  0  0  0
    9.1782   -3.1232   -1.1857 C   0  0  0  0  0  0  0  0  0  0  0  0
    9.9307   -2.9748   -0.0193 C   0  0  0  0  0  0  0  0  0  0  0  0
    9.4269   -2.2224    1.0406 C   0  0  0  0  0  0  0  0  0  0  0  0
    8.1743   -1.6251    0.9280 C   0  0  0  0  0  0  0  0  0  0  0  0
    7.7092   -0.9054    1.9592 F   0  0  0  0  0  0  0  0  0  0  0  0
    3.4849    0.2161   -0.6233 O   0  0  0  0  0  0  0  0  0  0  0  0
  1  2  2  0
  2  3  1  0
  3  4  1  0
  4  5  2  0
  5  6  1  0
  6  7  2  0
  7  8  1  0
  8  9  2  0
  8 10  1  0
 10 11  1  0
 11 12  1  0
 12 13  1  0
 13 14  1  0
 14 15  1  0
  7 16  1  0
 16 17  2  0
  2 18  1  0
 18 19  2  0
 19 20  1  0
 20 21  2  0
 21 22  1  0
 22 23  1  0
 23 24  1  0
 24 25  2  0
 25 26  1  0
 26 27  2  0
 27 28  1  0
 28 29  2  0
 29 30  1  0
 21 31  1  0
 17  4  1  0
 31 18  1  0
 15 10  1  0
 29 24  1  0
M  END
>  <energy>  (297) 
138.82

>  <full_id>  (297) 
MOL00012547-003116-02_1

>  <mol_id>  (297) 
MOL00012547-003116-02

>  <act_mol>  (297) 
0

>  <act_conf>  (297) 
0

$$$$
MOL00012377-000045-00
     RDKit          3D

 28 31  0  0  0  0  0  0  0  0999 V2000
    6.7885    0.6120    3.3335 C   0  0  0  0  0  0  0  0  0  0  0  0
    6.5420    0.3834    1.8560 C   0  0  1  0  0  0  0  0  0  0  0  0
    7.6873   -0.3132    1.1474 C   0  0  0  0  0  0  0  0  0  0  0  0
    7.0559   -0.8860   -0.0393 N   0  0  0  0  0  0  0  0  0  0  0  0
    5.6559   -1.0968    0.3781 C   0  0  2  0  0  0  0  0  0  0  0  0
    4.6781   -0.4319   -0.6390 C   0  0  0  0  0  0  0  0  0  0  0  0
    5.0272   -0.0246   -1.7457 O   0  0  0  0  0  0  0  0  0  0  0  0
    3.3852   -0.3322   -0.1659 N   0  0  0  0  0  0  0  0  0  0  0  0
    2.3752    0.3868   -0.9008 C   0  0  2  0  0  0  0  0  0  0  0  0
    2.5324    1.9156   -0.7679 C   0  0  0  0  0  0  0  0  0  0  0  0
    1.1222    2.5084   -0.8811 C   0  0  0  0  0  0  0  0  0  0  0  0
    0.2912    1.3969   -0.3202 C   0  0  0  0  0  0  0  0  0  0  0  0
   -1.0212    1.4579    0.1214 C   0  0  0  0  0  0  0  0  0  0  0  0
   -1.6402    0.2792    0.5664 C   0  0  0  0  0  0  0  0  0  0  0  0
   -3.0680    0.3078    1.0751 C   0  0  0  0  0  0  0  0  0  0  0  0
   -3.9771   -0.5768    0.3208 N   0  0  0  0  0  0  0  0  0  0  0  0
   -4.2086   -0.0583   -1.0387 C   0  0  0  0  0  0  0  0  0  0  0  0
   -5.1217   -0.9913   -1.8390 C   0  0  0  0  0  0  0  0  0  0  0  0
   -6.4416   -1.2853   -1.1206 C   0  0  0  0  0  0  0  0  0  0  0  0
   -7.4051   -0.1050   -1.1930 C   0  0  0  0  0  0  0  0  0  0  0  0
   -8.6535   -0.3465   -0.6952 N   0  0  0  0  0  0  0  0  0  0  0  0
   -7.1318    0.9948   -1.6585 O   0  0  0  0  0  0  0  0  0  0  0  0
   -6.1731   -1.7034    0.3279 C   0  0  0  0  0  0  0  0  0  0  0  0
   -5.2488   -0.7163    1.0423 C   0  0  0  0  0  0  0  0  0  0  0  0
   -0.9209   -0.9359    0.5436 C   0  0  0  0  0  0  0  0  0  0  0  0
    0.3975   -0.9881    0.0845 C   0  0  0  0  0  0  0  0  0  0  0  0
    0.9975    0.1884   -0.3352 C   0  0  0  0  0  0  0  0  0  0  0  0
    5.4448   -0.5190    1.6741 O   0  0  0  0  0  0  0  0  0  0  0  0
  2  1  1  1
  2  3  1  0
  3  4  1  0
  4  5  1  0
  5  6  1  6
  6  7  2  0
  6  8  1  0
  9  8  1  1
  9 10  1  0
 10 11  1  0
 11 12  1  0
 12 13  2  0
 13 14  1  0
 14 15  1  0
 15 16  1  0
 16 17  1  0
 17 18  1  0
 18 19  1  0
 19 20  1  0
 20 21  1  0
 20 22  2  0
 19 23  1  0
 23 24  1  0
 14 25  2  0
 25 26  1  0
 26 27  2  0
  5 28  1  0
 28  2  1  0
 27  9  1  0
 27 12  1  0
 24 16  1  0
M  END
>  <energy>  (298) 
33.20

>  <full_id>  (298) 
MOL00012377-000045-00_1

>  <mol_id>  (298) 
MOL00012377-000045-00

>  <act_mol>  (298) 
0

>  <act_conf>  (298) 
0

$$$$
MOL00012493-000578-03
     RDKit          3D

 30 32  0  0  0  0  0  0  0  0999 V2000
    7.4334   -1.3781    1.1793 C   0  0  0  0  0  0  0  0  0  0  0  0
    6.7134   -1.1142   -0.1161 C   0  0  0  0  0  0  0  0  0  0  0  0
    6.4446   -2.0263   -0.9005 O   0  0  0  0  0  0  0  0  0  0  0  0
    6.3953    0.3312   -0.4447 C   0  0  0  0  0  0  0  0  0  0  0  0
    4.9647    0.4807   -0.9455 C   0  0  0  0  0  0  0  0  0  0  0  0
    3.9511    0.2944    0.1725 C   0  0  0  0  0  0  0  0  0  0  0  0
    4.2991    0.0682    1.3277 O   0  0  0  0  0  0  0  0  0  0  0  0
    2.6616    0.4429   -0.2910 N   0  0  0  0  0  0  0  0  0  0  0  0
    1.4955    0.2522    0.4579 C   0  0  0  0  0  0  0  0  0  0  0  0
    1.5529   -0.2433    1.7127 N   0  0  0  0  0  0  0  0  0  0  0  0
    0.4310   -0.4487    2.4019 C   0  0  0  0  0  0  0  0  0  0  0  0
    0.5772   -0.9637    3.6734 N   0  0  0  0  0  0  0  0  0  0  0  0
   -0.8124   -0.1890    1.9869 N   0  0  0  0  0  0  0  0  0  0  0  0
   -0.8481    0.3054    0.7402 C   0  0  0  0  0  0  0  0  0  0  0  0
    0.2359    0.5504   -0.0906 C   0  0  0  0  0  0  0  0  0  0  0  0
   -0.2901    1.0727   -1.3257 C   0  0  0  0  0  0  0  0  0  0  0  0
    0.4724    1.4841   -2.4988 C   0  0  0  0  0  0  0  0  0  0  0  0
   -0.2374    1.9888   -3.5460 N   0  0  0  0  0  0  0  0  0  0  0  0
    1.6956    1.3970   -2.5623 O   0  0  0  0  0  0  0  0  0  0  0  0
   -1.6717    1.1059   -1.1792 C   0  0  0  0  0  0  0  0  0  0  0  0
   -1.9955    0.6409    0.0712 N   0  0  0  0  0  0  0  0  0  0  0  0
   -3.3301    0.5204    0.6527 C   0  0  1  0  0  0  0  0  0  0  0  0
   -4.3196    1.0095   -0.2880 O   0  0  0  0  0  0  0  0  0  0  0  0
   -5.2962   -0.0439   -0.4699 C   0  0  2  0  0  0  0  0  0  0  0  0
   -6.6755    0.5729   -0.6630 C   0  0  0  0  0  0  0  0  0  0  0  0
   -6.6612    1.4232   -1.8102 O   0  0  0  0  0  0  0  0  0  0  0  0
   -5.1989   -0.9209    0.7661 C   0  0  1  0  0  0  0  0  0  0  0  0
   -5.7094   -2.2265    0.5637 O   0  0  0  0  0  0  0  0  0  0  0  0
   -3.7013   -0.9266    0.9977 C   0  0  2  0  0  0  0  0  0  0  0  0
   -3.4178   -1.3027    2.3448 O   0  0  0  0  0  0  0  0  0  0  0  0
  1  2  1  0
  2  3  2  0
  2  4  1  0
  4  5  1  0
  5  6  1  0
  6  7  2  0
  6  8  1  0
  8  9  1  0
  9 10  2  0
 10 11  1  0
 11 12  1  0
 11 13  2  0
 13 14  1  0
 14 15  2  0
 15 16  1  0
 16 17  1  0
 17 18  1  0
 17 19  2  0
 16 20  2  0
 20 21  1  0
 22 21  1  6
 22 23  1  0
 23 24  1  0
 24 25  1  1
 25 26  1  0
 24 27  1  0
 27 28  1  6
 27 29  1  0
 29 30  1  1
 15  9  1  0
 29 22  1  0
 21 14  1  0
M  END
>  <energy>  (299) 
-80.48

>  <full_id>  (299) 
MOL00012493-000578-03_1

>  <mol_id>  (299) 
MOL00012493-000578-03

>  <act_mol>  (299) 
0

>  <act_conf>  (299) 
0

$$$$
MOL00012331-001334-03
     RDKit          3D

 33 36  0  0  0  0  0  0  0  0999 V2000
   -8.0355   -1.3455   -1.6960 C   0  0  0  0  0  0  0  0  0  0  0  0
   -6.8451   -0.5195   -2.1624 C   0  0  0  0  0  0  0  0  0  0  0  0
   -5.9112   -0.1716   -1.0330 C   0  0  0  0  0  0  0  0  0  0  0  0
   -5.8810    1.1165   -0.4993 C   0  0  0  0  0  0  0  0  0  0  0  0
   -5.0005    1.4306    0.5404 C   0  0  0  0  0  0  0  0  0  0  0  0
   -4.1183    0.4722    1.0828 C   0  0  0  0  0  0  0  0  0  0  0  0
   -3.1921    0.9281    2.2036 C   0  0  1  0  0  0  0  0  0  0  0  0
   -3.5253    0.2327    3.5364 C   0  0  0  0  0  0  0  0  0  0  0  0
   -2.2231   -0.3846    4.0051 C   0  0  0  0  0  0  0  0  0  0  0  0
   -1.1641    0.4178    3.2802 C   0  0  0  0  0  0  0  0  0  0  0  0
   -1.7440    0.6990    1.9545 N   0  0  0  0  0  0  0  0  0  0  0  0
   -1.0553    1.8385    1.3065 C   0  0  2  0  0  0  0  0  0  0  0  0
   -1.7197    2.2154    0.0522 N   0  0  0  0  0  0  0  0  0  0  0  0
   -1.4865    1.2522   -1.0049 C   0  0  0  0  0  0  0  0  0  0  0  0
   -0.0751    1.2717   -1.3125 N   0  0  0  0  0  0  0  0  0  0  0  0
    0.6743    0.7371   -0.1853 C   0  0  1  0  0  0  0  0  0  0  0  0
    2.0206    0.6956   -0.7315 N   0  0  0  0  0  0  0  0  0  0  0  0
    3.0133    0.1903    0.2132 C   0  0  0  0  0  0  0  0  0  0  0  0
    4.3237   -0.1540   -0.4624 C   0  0  0  0  0  0  0  0  0  0  0  0
    4.9037    0.6761   -1.4307 C   0  0  0  0  0  0  0  0  0  0  0  0
    6.1163    0.3291   -2.0380 C   0  0  0  0  0  0  0  0  0  0  0  0
    6.7883   -0.8429   -1.6769 C   0  0  0  0  0  0  0  0  0  0  0  0
    7.9989   -1.1228   -2.3379 N   0  0  0  0  0  0  0  0  0  0  0  0
    8.7895   -2.2301   -2.2030 C   0  0  0  0  0  0  0  0  0  0  0  0
    9.9055   -2.1543   -2.9873 N   0  0  0  0  0  0  0  0  0  0  0  0
    8.6092   -3.2200   -1.5094 O   0  0  0  0  0  0  0  0  0  0  0  0
    6.2342   -1.6567   -0.6907 C   0  0  0  0  0  0  0  0  0  0  0  0
    5.0152   -1.3155   -0.0905 C   0  0  0  0  0  0  0  0  0  0  0  0
    0.4667    1.6369    1.0523 C   0  0  1  0  0  0  0  0  0  0  0  0
    1.0378    2.8662    0.8271 F   0  0  0  0  0  0  0  0  0  0  0  0
   -4.1638   -0.8245    0.5430 C   0  0  0  0  0  0  0  0  0  0  0  0
   -3.1467   -2.1147    1.0814 Cl  0  0  0  0  0  0  0  0  0  0  0  0
   -5.0498   -1.1364   -0.4996 C   0  0  0  0  0  0  0  0  0  0  0  0
  1  2  1  0
  2  3  1  0
  3  4  2  0
  4  5  1  0
  5  6  2  0
  7  6  1  6
  7  8  1  0
  8  9  1  0
  9 10  1  0
 10 11  1  0
 12 11  1  6
 12 13  1  0
 13 14  1  0
 14 15  1  0
 15 16  1  0
 16 17  1  6
 17 18  1  0
 18 19  1  0
 19 20  2  0
 20 21  1  0
 21 22  2  0
 22 23  1  0
 23 24  1  0
 24 25  1  0
 24 26  2  0
 22 27  1  0
 27 28  2  0
 16 29  1  0
 29 30  1  6
  6 31  1  0
 31 32  1  0
 31 33  2  0
 33  3  1  0
 11  7  1  0
 29 12  1  0
 28 19  1  0
M  END
>  <energy>  (300) 
-125.30

>  <full_id>  (300) 
MOL00012331-001334-03_1

>  <mol_id>  (300) 
MOL00012331-001334-03

>  <act_mol>  (300) 
0

>  <act_conf>  (300) 
0

$$$$
MOL00012642-000219-04
     RDKit          3D

 32 33  0  0  0  0  0  0  0  0999 V2000
   -6.6252    2.7419   -0.9834 C   0  0  0  0  0  0  0  0  0  0  0  0
   -5.8054    1.4681   -1.1453 C   0  0  2  0  0  0  0  0  0  0  0  0
   -6.6984    0.3188   -1.2937 N   0  0  0  0  0  0  0  0  0  0  0  0
   -6.2392   -0.8374   -1.8449 C   0  0  0  0  0  0  0  0  0  0  0  0
   -7.1723   -1.8155   -1.8550 N   0  0  0  0  0  0  0  0  0  0  0  0
   -5.1009   -1.0034   -2.2598 O   0  0  0  0  0  0  0  0  0  0  0  0
   -4.8821    1.2508    0.0692 C   0  0  0  0  0  0  0  0  0  0  0  0
   -5.0894    1.7382    1.1793 O   0  0  0  0  0  0  0  0  0  0  0  0
   -3.8174    0.3944   -0.1959 N   0  0  0  0  0  0  0  0  0  0  0  0
   -3.1039   -0.0806    0.9277 N   0  0  0  0  0  0  0  0  0  0  0  0
   -1.6989    0.1389    0.8650 C   0  0  0  0  0  0  0  0  0  0  0  0
   -1.0342    0.2191   -0.3745 C   0  0  0  0  0  0  0  0  0  0  0  0
    0.3597    0.3418   -0.4602 C   0  0  0  0  0  0  0  0  0  0  0  0
    1.1370    0.3486    0.7009 C   0  0  0  0  0  0  0  0  0  0  0  0
    2.6191    0.4881    0.6577 C   0  0  0  0  0  0  0  0  0  0  0  0
    3.1636    1.1088    1.5617 O   0  0  0  0  0  0  0  0  0  0  0  0
    3.2380   -0.1322   -0.4085 N   0  0  0  0  0  0  0  0  0  0  0  0
    4.6181   -0.1485   -0.7099 C   0  0  0  0  0  0  0  0  0  0  0  0
    5.6004    0.5087    0.0332 C   0  0  0  0  0  0  0  0  0  0  0  0
    6.9592    0.4508   -0.3447 C   0  0  0  0  0  0  0  0  0  0  0  0
    7.9792    1.1749    0.4963 C   0  0  0  0  0  0  0  0  0  0  0  0
    8.7385    0.2484    1.2583 O   0  0  0  0  0  0  0  0  0  0  0  0
    7.3143   -0.2930   -1.4821 C   0  0  0  0  0  0  0  0  0  0  0  0
    8.9577   -0.4336   -1.9945 Cl  0  0  0  0  0  0  0  0  0  0  0  0
    6.3425   -0.9538   -2.2307 C   0  0  0  0  0  0  0  0  0  0  0  0
    5.0122   -0.8740   -1.8394 C   0  0  0  0  0  0  0  0  0  0  0  0
    4.0822   -1.5102   -2.5702 F   0  0  0  0  0  0  0  0  0  0  0  0
    0.5145    0.2449    1.9469 C   0  0  0  0  0  0  0  0  0  0  0  0
   -0.8847    0.1222    2.0195 C   0  0  0  0  0  0  0  0  0  0  0  0
   -1.4748   -0.0328    3.3482 N   0  0  0  0  0  4  0  0  0  0  0  0
   -0.8112   -0.6415    4.1997 O   0  0  0  0  0  0  0  0  0  0  0  0
   -2.5966    0.4567    3.5431 O   0  0  0  0  0  1  0  0  0  0  0  0
  2  1  1  1
  2  3  1  0
  3  4  1  0
  4  5  1  0
  4  6  2  0
  2  7  1  0
  7  8  2  0
  7  9  1  0
  9 10  1  0
 10 11  1  0
 11 12  2  0
 12 13  1  0
 13 14  2  0
 14 15  1  0
 15 16  2  0
 15 17  1  0
 17 18  1  0
 18 19  2  0
 19 20  1  0
 20 21  1  0
 21 22  1  0
 20 23  2  0
 23 24  1  0
 23 25  1  0
 25 26  2  0
 26 27  1  0
 14 28  1  0
 28 29  2  0
 29 30  1  0
 30 31  2  0
 30 32  1  0
 29 11  1  0
 26 18  1  0
M  CHG  2  30   1  32  -1
M  END
>  <energy>  (301) 
9.71

>  <full_id>  (301) 
MOL00012642-000219-04_1

>  <mol_id>  (301) 
MOL00012642-000219-04

>  <act_mol>  (301) 
0

>  <act_conf>  (301) 
0

$$$$
MOL00012506-001470-03
     RDKit          3D

 34 36  0  0  0  0  0  0  0  0999 V2000
    1.3858    2.5130    3.0334 C   0  0  0  0  0  0  0  0  0  0  0  0
    0.5617    2.3009    1.8388 N   0  0  0  0  0  0  0  0  0  0  0  0
    0.6973    3.4541    0.9418 C   0  0  0  0  0  0  0  0  0  0  0  0
   -0.8460    2.1003    2.2507 C   0  0  0  0  0  0  0  0  0  0  0  0
   -1.7950    1.7773    1.1105 C   0  0  0  0  0  0  0  0  0  0  0  0
   -2.9543    2.5448    0.9140 C   0  0  0  0  0  0  0  0  0  0  0  0
   -3.8519    2.2687   -0.1214 C   0  0  0  0  0  0  0  0  0  0  0  0
   -3.5538    1.1963   -0.9675 C   0  0  0  0  0  0  0  0  0  0  0  0
   -4.2337    0.7166   -2.0650 N   0  0  0  0  0  0  0  0  0  0  0  0
   -3.5578   -0.3392   -2.6162 C   0  0  0  0  0  0  0  0  0  0  0  0
   -2.4359   -0.5724   -1.8575 C   0  0  0  0  0  0  0  0  0  0  0  0
   -1.4620   -1.5309   -2.0592 N   0  0  0  0  0  0  0  0  0  0  0  0
   -1.3790   -2.4113   -3.1178 C   0  0  0  0  0  0  0  0  0  0  0  0
   -2.2486   -2.6170   -3.9629 O   0  0  0  0  0  0  0  0  0  0  0  0
   -0.0788   -3.2360   -3.1209 C   0  0  0  0  0  0  0  0  0  0  0  0
    1.1344   -2.4275   -2.9966 N   0  0  0  0  0  0  0  0  0  0  0  0
    1.5608   -2.0003   -1.7605 C   0  0  0  0  0  0  0  0  0  0  0  0
    0.9026   -2.2188   -0.7515 O   0  0  0  0  0  0  0  0  0  0  0  0
    2.7109   -1.2561   -1.8487 N   0  0  0  0  0  0  0  0  0  0  0  0
    3.3967   -0.6377   -0.7829 C   0  0  0  0  0  0  0  0  0  0  0  0
    4.3637    0.3215   -1.1112 C   0  0  0  0  0  0  0  0  0  0  0  0
    5.0720    0.9882   -0.1105 C   0  0  0  0  0  0  0  0  0  0  0  0
    4.8163    0.6766    1.2290 C   0  0  0  0  0  0  0  0  0  0  0  0
    5.5871    1.3838    2.2355 N   0  0  0  0  0  4  0  0  0  0  0  0
    6.3483    0.7080    2.9357 O   0  0  0  0  0  0  0  0  0  0  0  0
    5.4393    2.6091    2.2916 O   0  0  0  0  0  1  0  0  0  0  0  0
    3.8638   -0.2819    1.5967 C   0  0  0  0  0  0  0  0  0  0  0  0
    3.5910   -0.6351    3.0328 C   0  0  0  0  0  0  0  0  0  0  0  0
    4.4912   -1.5245    3.5254 F   0  0  0  0  0  0  0  0  0  0  0  0
    3.6163    0.4399    3.8638 F   0  0  0  0  0  0  0  0  0  0  0  0
    2.3692   -1.2064    3.2212 F   0  0  0  0  0  0  0  0  0  0  0  0
    3.1643   -0.9397    0.5657 C   0  0  0  0  0  0  0  0  0  0  0  0
   -2.4213    0.3984   -0.8067 C   0  0  0  0  0  0  0  0  0  0  0  0
   -1.5351    0.6913    0.2549 C   0  0  0  0  0  0  0  0  0  0  0  0
  1  2  1  0
  2  3  1  0
  2  4  1  0
  4  5  1  0
  5  6  2  0
  6  7  1  0
  7  8  2  0
  8  9  1  0
  9 10  1  0
 10 11  2  0
 11 12  1  0
 12 13  1  0
 13 14  2  0
 13 15  1  0
 15 16  1  0
 16 17  1  0
 17 18  2  0
 17 19  1  0
 19 20  1  0
 20 21  2  0
 21 22  1  0
 22 23  2  0
 23 24  1  0
 24 25  2  0
 24 26  1  0
 23 27  1  0
 27 28  1  0
 28 29  1  0
 28 30  1  0
 28 31  1  0
 27 32  2  0
 11 33  1  0
 33 34  2  0
 34  5  1  0
 33  8  1  0
 32 20  1  0
M  CHG  2  24   1  26  -1
M  END
>  <energy>  (302) 
-14.60

>  <full_id>  (302) 
MOL00012506-001470-03_1

>  <mol_id>  (302) 
MOL00012506-001470-03

>  <act_mol>  (302) 
0

>  <act_conf>  (302) 
0

$$$$
MOL00012324-002120-03
     RDKit          3D

 33 37  0  0  0  0  0  0  0  0999 V2000
    7.9460   -2.0749   -0.0520 C   0  0  0  0  0  0  0  0  0  0  0  0
    7.3187   -0.7054    0.1184 C   0  0  0  0  0  0  0  0  0  0  0  0
    5.8950   -0.8658    0.1393 O   0  0  0  0  0  0  0  0  0  0  0  0
    5.2017    0.2863    0.3637 C   0  0  0  0  0  0  0  0  0  0  0  0
    5.7192    1.3847    0.5192 O   0  0  0  0  0  0  0  0  0  0  0  0
    3.6963    0.0258    0.3653 C   0  0  2  0  0  0  0  0  0  0  0  0
    3.3337   -1.1281    1.3293 C   0  0  0  0  0  0  0  0  0  0  0  0
    1.8168   -1.3816    1.3114 C   0  0  2  0  0  0  0  0  0  0  0  0
    1.3864   -1.7442   -0.1188 C   0  0  0  0  0  0  0  0  0  0  0  0
    1.7039   -0.5846   -1.0832 C   0  0  2  0  0  0  0  0  0  0  0  0
    3.2272   -0.3404   -1.0628 C   0  0  0  0  0  0  0  0  0  0  0  0
    0.9951    0.7163   -0.6395 C   0  0  1  0  0  0  0  0  0  0  0  0
   -0.4479    0.6383   -0.8112 N   0  0  0  0  0  0  0  0  0  0  0  0
   -1.2428    1.7704   -0.8722 C   0  0  0  0  0  0  0  0  0  0  0  0
   -0.7574    2.9025   -0.8238 O   0  0  0  0  0  0  0  0  0  0  0  0
   -2.8197    1.4606   -0.9802 C   0  0  0  0  0  0  0  0  0  0  0  0
   -3.4634    1.0769    0.3578 N   0  0  0  0  0  0  0  0  0  0  0  0
   -3.1493   -0.3743    1.1595 S   0  0  0  0  0  6  0  0  0  0  0  0
   -2.7908   -0.0286    2.5148 O   0  0  0  0  0  0  0  0  0  0  0  0
   -2.2535   -1.1444    0.3202 O   0  0  0  0  0  0  0  0  0  0  0  0
   -4.7515   -1.1527    1.1552 C   0  0  0  0  0  0  0  0  0  0  0  0
   -4.9333   -2.2511    0.2990 C   0  0  0  0  0  0  0  0  0  0  0  0
   -6.1554   -2.9195    0.2619 C   0  0  0  0  0  0  0  0  0  0  0  0
   -7.1962   -2.5027    1.0838 C   0  0  0  0  0  0  0  0  0  0  0  0
   -7.0195   -1.4154    1.9414 C   0  0  0  0  0  0  0  0  0  0  0  0
   -5.7999   -0.7172    1.9892 C   0  0  0  0  0  0  0  0  0  0  0  0
   -5.6758    0.4295    2.9528 C   0  0  0  0  0  0  0  0  0  0  0  0
   -3.2389    0.5616   -2.2012 C   0  0  0  0  0  0  0  0  0  0  0  0
   -4.4353    1.5006   -2.4244 C   0  0  0  0  0  0  0  0  0  0  0  0
   -3.6273    2.5990   -1.7156 C   0  0  0  0  0  0  0  0  0  0  0  0
    1.4126    1.0565    0.8108 C   0  0  1  0  0  0  0  0  0  0  0  0
    1.0849   -0.1087    1.7602 C   0  0  0  0  0  0  0  0  0  0  0  0
    2.9358    1.2945    0.8304 C   0  0  0  0  0  0  0  0  0  0  0  0
  1  2  1  0
  2  3  1  0
  3  4  1  0
  4  5  2  0
  6  4  1  6
  6  7  1  0
  8  7  1  6
  8  9  1  0
 10  9  1  1
 10 11  1  0
 10 12  1  0
 12 13  1  1
 13 14  1  0
 14 15  2  0
 14 16  1  0
 16 17  1  0
 18 17  1  0
 18 19  2  0
 18 20  2  0
 18 21  1  0
 21 22  2  0
 22 23  1  0
 23 24  2  0
 24 25  1  0
 25 26  2  0
 26 27  1  0
 16 28  1  0
 28 29  1  0
 29 30  1  0
 12 31  1  0
 31 32  1  1
 31 33  1  0
 11  6  1  0
 30 16  1  0
 33  6  1  0
 32  8  1  0
 26 21  1  0
M  END
>  <energy>  (303) 
-10.96

>  <full_id>  (303) 
MOL00012324-002120-03_1

>  <mol_id>  (303) 
MOL00012324-002120-03

>  <act_mol>  (303) 
0

>  <act_conf>  (303) 
0

$$$$
MOL00012472-001030-04
     RDKit          3D

 27 29  0  0  0  0  0  0  0  0999 V2000
   -7.6911   -0.5542   -2.0436 C   0  0  0  0  0  0  0  0  0  0  0  0
   -6.6831   -1.6093   -2.4842 C   0  0  0  0  0  0  0  0  0  0  0  0
   -5.6123   -1.8946   -1.4142 C   0  0  1  0  0  0  0  0  0  0  0  0
   -4.7431   -3.0769   -1.8539 C   0  0  0  0  0  0  0  0  0  0  0  0
   -4.7862   -0.7040   -1.2468 N   0  0  0  0  0  0  0  0  0  0  0  0
   -3.9905   -0.6183   -0.1177 C   0  0  0  0  0  0  0  0  0  0  0  0
   -4.3774   -1.1664    1.0181 N   0  0  0  0  0  0  0  0  0  0  0  0
   -3.5252   -0.9735    2.0101 C   0  0  0  0  0  0  0  0  0  0  0  0
   -3.9653   -1.6541    3.5158 Cl  0  0  0  0  0  0  0  0  0  0  0  0
   -2.3723   -0.3228    1.9853 N   0  0  0  0  0  0  0  0  0  0  0  0
   -2.0766    0.1713    0.7992 C   0  0  0  0  0  0  0  0  0  0  0  0
   -0.8637    0.8416    0.7237 N   0  0  0  0  0  0  0  0  0  0  0  0
   -0.7514    1.9118   -0.2670 C   0  0  1  0  0  0  0  0  0  0  0  0
    0.1840    3.0085    0.2705 C   0  0  0  0  0  0  0  0  0  0  0  0
    1.6432    2.5562    0.3654 C   0  0  0  0  0  0  0  0  0  0  0  0
    2.1552    2.0195   -0.9788 C   0  0  1  0  0  0  0  0  0  0  0  0
    3.6390    1.6069   -0.9193 C   0  0  0  0  0  0  0  0  0  0  0  0
    3.9589    0.4073   -0.0246 C   0  0  0  0  0  0  0  0  0  0  0  0
    5.4508    0.1285    0.0455 C   0  0  0  0  0  0  0  0  0  0  0  0
    6.2970    0.7975   -0.5378 O   0  0  0  0  0  0  0  0  0  0  0  0
    5.7458   -0.9623    0.8438 N   0  0  0  0  0  0  0  0  0  0  0  0
    7.0846   -1.3989    1.0775 C   0  0  0  0  0  0  0  0  0  0  0  0
    7.3751   -2.4792    2.0841 C   0  0  0  0  0  0  0  0  0  0  0  0
    7.7792   -1.0621    2.3687 C   0  0  0  0  0  0  0  0  0  0  0  0
    1.2456    0.8978   -1.4986 C   0  0  0  0  0  0  0  0  0  0  0  0
   -0.2122    1.3568   -1.5959 C   0  0  0  0  0  0  0  0  0  0  0  0
   -2.8539    0.0502   -0.2714 N   0  0  0  0  0  0  0  0  0  0  0  0
  1  2  1  0
  2  3  1  0
  3  4  1  6
  3  5  1  0
  5  6  1  0
  6  7  2  0
  7  8  1  0
  8  9  1  0
  8 10  2  0
 10 11  1  0
 11 12  1  0
 13 12  1  1
 13 14  1  0
 14 15  1  0
 15 16  1  0
 16 17  1  1
 17 18  1  0
 18 19  1  0
 19 20  2  0
 19 21  1  0
 22 21  1  0
 22 23  1  0
 23 24  1  0
 16 25  1  0
 25 26  1  0
 11 27  2  0
 27  6  1  0
 26 13  1  0
 24 22  1  0
M  END
>  <energy>  (304) 
-236.73

>  <full_id>  (304) 
MOL00012472-001030-04_1

>  <mol_id>  (304) 
MOL00012472-001030-04

>  <act_mol>  (304) 
0

>  <act_conf>  (304) 
0

$$$$
MOL00012877-001134-03
     RDKit          3D

 25 27  0  0  0  0  0  0  0  0999 V2000
    5.7616    0.4774    1.3416 C   0  0  0  0  0  0  0  0  0  0  0  0
    4.3293    0.3657    0.9274 C   0  0  0  0  0  0  0  0  0  0  0  0
    3.7019    1.3870    0.1824 C   0  0  0  0  0  0  0  0  0  0  0  0
    2.3376    1.3488   -0.2506 C   0  0  0  0  0  0  0  0  0  0  0  0
    1.8357    2.5280   -1.0664 C   0  0  0  0  0  0  0  0  0  0  0  0
    0.6809    3.0897   -0.4475 O   0  0  0  0  0  0  0  0  0  0  0  0
    1.4500    0.2578    0.0368 C   0  0  0  0  0  0  0  0  0  0  0  0
    0.1400    0.3117   -0.4813 N   0  0  0  0  0  0  0  0  0  0  0  0
   -0.9173   -0.6575   -0.1036 C   0  0  2  0  0  0  0  0  0  0  0  0
   -1.8185   -0.8354   -1.3506 C   0  0  2  0  0  0  0  0  0  0  0  0
   -1.0205   -1.1416   -2.5091 O   0  0  0  0  0  0  0  0  0  0  0  0
   -2.6453    0.4220   -1.6591 C   0  0  1  0  0  0  0  0  0  0  0  0
   -3.5620    0.1294   -2.7181 O   0  0  0  0  0  0  0  0  0  0  0  0
   -3.3869    0.8986   -0.4065 C   0  0  2  0  0  0  0  0  0  0  0  0
   -4.1005    2.2234   -0.6689 C   0  0  0  0  0  0  0  0  0  0  0  0
   -4.8863    2.5202    0.4072 F   0  0  0  0  0  0  0  0  0  0  0  0
   -2.4543    1.0832    0.6772 O   0  0  0  0  0  0  0  0  0  0  0  0
   -1.8038   -0.1526    1.0517 C   0  0  2  0  0  0  0  0  0  0  0  0
   -1.0443    0.1109    2.3529 C   0  0  0  0  0  0  0  0  0  0  0  0
   -1.9713    0.5075    3.3681 O   0  0  0  0  0  0  0  0  0  0  0  0
    2.0842   -0.7885    0.7700 C   0  0  0  0  0  0  0  0  0  0  0  0
    1.5873   -1.9591    1.1992 N   0  0  0  0  0  0  0  0  0  0  0  0
    2.6085   -2.6019    1.8644 O   0  0  0  0  0  0  0  0  0  0  0  0
    3.7642   -1.8512    1.8719 N   0  0  0  0  0  0  0  0  0  0  0  0
    3.4806   -0.7259    1.2031 C   0  0  0  0  0  0  0  0  0  0  0  0
  1  2  1  0
  2  3  2  0
  3  4  1  0
  4  5  1  0
  5  6  1  0
  4  7  2  0
  7  8  1  0
  9  8  1  6
  9 10  1  0
 10 11  1  6
 10 12  1  0
 12 13  1  6
 12 14  1  0
 14 15  1  6
 15 16  1  0
 14 17  1  0
 17 18  1  0
 18 19  1  1
 19 20  1  0
  7 21  1  0
 21 22  2  0
 22 23  1  0
 23 24  1  0
 24 25  2  0
 25  2  1  0
 18  9  1  0
 25 21  1  0
M  END
>  <energy>  (305) 
166.94

>  <full_id>  (305) 
MOL00012877-001134-03_1

>  <mol_id>  (305) 
MOL00012877-001134-03

>  <act_mol>  (305) 
0

>  <act_conf>  (305) 
0

$$$$
MOL00012658-001218-04
     RDKit          3D

 30 32  0  0  0  0  0  0  0  0999 V2000
   -9.2659   -0.0462   -0.8985 C   0  0  0  0  0  0  0  0  0  0  0  0
   -8.0927   -0.2136   -0.0400 N   0  0  0  0  0  0  0  0  0  0  0  0
   -7.1888    0.9357   -0.1797 C   0  0  0  0  0  0  0  0  0  0  0  0
   -5.9875    0.8062    0.7584 C   0  0  0  0  0  0  0  0  0  0  0  0
   -5.2330   -0.5104    0.5231 C   0  0  0  0  0  0  0  0  0  0  0  0
   -4.0998   -0.6984    1.5382 C   0  0  0  0  0  0  0  0  0  0  0  0
   -3.1489    0.3758    1.4489 O   0  0  0  0  0  0  0  0  0  0  0  0
   -2.1632    0.2249    0.5153 C   0  0  0  0  0  0  0  0  0  0  0  0
   -2.0612   -0.7292   -0.2444 O   0  0  0  0  0  0  0  0  0  0  0  0
   -1.2738    1.4502    0.5117 C   0  0  0  0  0  0  0  0  0  0  0  0
    0.1861    1.1509    0.2735 C   0  0  0  0  0  0  0  0  0  0  0  0
    0.6459    0.7874   -0.9968 C   0  0  0  0  0  0  0  0  0  0  0  0
    2.0002    0.5141   -1.2101 C   0  0  0  0  0  0  0  0  0  0  0  0
    2.9220    0.5989   -0.1605 C   0  0  0  0  0  0  0  0  0  0  0  0
    4.2667    0.3106   -0.4605 N   0  0  0  0  0  0  0  0  0  0  0  0
    5.3562    0.3221    0.3970 C   0  0  0  0  0  0  0  0  0  0  0  0
    5.3462    0.5993    1.5922 O   0  0  0  0  0  0  0  0  0  0  0  0
    6.6608   -0.0005   -0.3446 C   0  0  1  0  0  0  0  0  0  0  0  0
    7.8265   -0.3461    0.5539 C   0  0  0  0  0  0  0  0  0  0  0  0
    8.7376   -1.1761   -0.3428 C   0  0  2  0  0  0  0  0  0  0  0  0
    9.9436   -0.3545   -0.8368 C   0  0  0  0  0  0  0  0  0  0  0  0
   10.7349   -1.0919   -1.6488 F   0  0  0  0  0  0  0  0  0  0  0  0
    9.5450    0.7328   -1.5359 F   0  0  0  0  0  0  0  0  0  0  0  0
   10.7030    0.0730    0.1953 F   0  0  0  0  0  0  0  0  0  0  0  0
    7.8556   -1.7024   -1.4257 N   0  0  0  0  0  0  0  0  0  0  0  0
    6.5042   -1.2152   -1.1751 N   0  0  0  0  0  0  0  0  0  0  0  0
    2.4653    0.9592    1.1060 C   0  0  0  0  0  0  0  0  0  0  0  0
    1.1088    1.2309    1.3223 C   0  0  0  0  0  0  0  0  0  0  0  0
   -6.2108   -1.6892    0.5777 C   0  0  0  0  0  0  0  0  0  0  0  0
   -7.4014   -1.4702   -0.3567 C   0  0  0  0  0  0  0  0  0  0  0  0
  1  2  1  0
  2  3  1  0
  3  4  1  0
  4  5  1  0
  5  6  1  0
  6  7  1  0
  7  8  1  0
  8  9  2  0
  8 10  1  0
 10 11  1  0
 11 12  2  0
 12 13  1  0
 13 14  2  0
 14 15  1  0
 15 16  1  0
 16 17  2  0
 18 16  1  1
 18 19  1  0
 20 19  1  0
 20 21  1  6
 21 22  1  0
 21 23  1  0
 21 24  1  0
 20 25  1  0
 25 26  1  0
 14 27  1  0
 27 28  2  0
  5 29  1  0
 29 30  1  0
 30  2  1  0
 28 11  1  0
 26 18  1  0
M  END
>  <energy>  (306) 
143.91

>  <full_id>  (306) 
MOL00012658-001218-04_1

>  <mol_id>  (306) 
MOL00012658-001218-04

>  <act_mol>  (306) 
0

>  <act_conf>  (306) 
0

$$$$
MOL00013059-000002-03
     RDKit          3D

 26 28  0  0  0  0  0  0  0  0999 V2000
    6.0995   -2.4057   -3.5100 O   0  0  0  0  0  0  0  0  0  0  0  0
    6.1612   -1.3207   -2.9508 C   0  0  0  0  0  0  0  0  0  0  0  0
    7.2841   -0.5746   -3.0590 O   0  0  0  0  0  0  0  0  0  0  0  0
    5.1714   -0.6665   -2.1456 C   0  0  0  0  0  0  0  0  0  0  0  0
    5.2125    0.5529   -1.5061 C   0  0  0  0  0  0  0  0  0  0  0  0
    4.0764    0.8987   -0.8014 N   0  0  0  0  0  0  0  0  0  0  0  0
    3.1693   -0.0484   -0.8948 C   0  0  0  0  0  0  0  0  0  0  0  0
    1.9346   -0.0547   -0.3356 N   0  0  0  0  0  0  0  0  0  0  0  0
    1.3416    0.8587    0.4896 C   0  0  0  0  0  0  0  0  0  0  0  0
    2.0647    2.2972    1.0919 S   0  0  0  0  0  0  0  0  0  0  0  0
    0.7853    2.7940    2.0028 N   0  0  0  0  0  0  0  0  0  0  0  0
   -0.1982    1.9032    1.8930 C   0  0  0  0  0  0  0  0  0  0  0  0
   -1.4320    2.1561    2.6992 C   0  0  0  0  0  0  0  0  0  0  0  0
   -2.5363    2.4646    1.8414 O   0  0  0  0  0  0  0  0  0  0  0  0
    0.0364    0.7948    0.9891 C   0  0  0  0  0  0  0  0  0  0  0  0
   -0.8725   -0.2999    0.6191 C   0  0  0  0  0  0  0  0  0  0  0  0
   -0.4171   -1.3607    0.1980 O   0  0  0  0  0  0  0  0  0  0  0  0
   -2.2220   -0.0240    0.7254 N   0  0  0  0  0  0  0  0  0  0  0  0
   -3.2952   -0.9045    0.4638 C   0  0  0  0  0  0  0  0  0  0  0  0
   -3.1710   -2.2450    0.1014 C   0  0  0  0  0  0  0  0  0  0  0  0
   -4.2241   -3.0702   -0.1380 N   0  0  0  0  0  0  0  0  0  0  0  0
   -5.4595   -2.5345   -0.0097 C   0  0  0  0  0  0  0  0  0  0  0  0
   -5.6870   -1.2166    0.3483 C   0  0  0  0  0  0  0  0  0  0  0  0
   -7.2849   -0.6066    0.4953 Cl  0  0  0  0  0  0  0  0  0  0  0  0
   -4.5908   -0.3926    0.5892 C   0  0  0  0  0  0  0  0  0  0  0  0
    3.6557   -1.4036   -1.8522 S   0  0  0  0  0  0  0  0  0  0  0  0
  1  2  2  0
  2  3  1  0
  2  4  1  0
  4  5  2  0
  5  6  1  0
  6  7  2  0
  7  8  1  0
  8  9  1  0
  9 10  1  0
 10 11  1  0
 11 12  2  0
 12 13  1  0
 13 14  1  0
 12 15  1  0
 15 16  1  0
 16 17  2  0
 16 18  1  0
 18 19  1  0
 19 20  2  0
 20 21  1  0
 21 22  2  0
 22 23  1  0
 23 24  1  0
 23 25  2  0
  7 26  1  0
 26  4  1  0
 15  9  2  0
 25 19  1  0
M  END
>  <energy>  (307) 
-23.35

>  <full_id>  (307) 
MOL00013059-000002-03_1

>  <mol_id>  (307) 
MOL00013059-000002-03

>  <act_mol>  (307) 
0

>  <act_conf>  (307) 
0

$$$$
MOL00012852-000865-02
     RDKit          3D

 29 32  0  0  0  0  0  0  0  0999 V2000
    8.7124    0.2477   -1.5573 C   0  0  0  0  0  0  0  0  0  0  0  0
    7.2910   -0.2707   -1.3736 C   0  0  0  0  0  0  0  0  0  0  0  0
    6.6457    0.3352   -0.2013 N   0  0  0  0  0  0  0  0  0  0  0  0
    5.3527   -0.3300    0.0870 C   0  0  0  0  0  0  0  0  0  0  0  0
    4.5269    0.7494    0.7994 C   0  0  2  0  0  0  0  0  0  0  0  0
    3.0865    0.6718    0.6180 N   0  0  0  0  0  0  0  0  0  0  0  0
    2.3792   -0.4096    1.0906 C   0  0  0  0  0  0  0  0  0  0  0  0
    2.9217   -1.4029    1.5608 O   0  0  0  0  0  0  0  0  0  0  0  0
    0.8936   -0.3150    1.0318 C   0  0  0  0  0  0  0  0  0  0  0  0
    0.1424   -1.1086    1.9048 C   0  0  0  0  0  0  0  0  0  0  0  0
   -1.2556   -1.0560    1.8823 C   0  0  0  0  0  0  0  0  0  0  0  0
   -1.9352   -0.2176    0.9834 C   0  0  0  0  0  0  0  0  0  0  0  0
   -3.4075   -0.1653    0.9586 C   0  0  0  0  0  0  0  0  0  0  0  0
   -4.1421    0.0564    2.1303 C   0  0  0  0  0  0  0  0  0  0  0  0
   -5.5356    0.1054    2.1020 C   0  0  0  0  0  0  0  0  0  0  0  0
   -6.2287   -0.0669    0.9003 C   0  0  0  0  0  0  0  0  0  0  0  0
   -5.5304   -0.2919   -0.2887 C   0  0  0  0  0  0  0  0  0  0  0  0
   -6.1769   -0.4752   -1.5465 N   0  0  0  0  0  0  0  0  0  0  0  0
   -5.4344   -0.6381   -2.6745 N   0  0  0  0  0  0  0  0  0  0  0  0
   -6.2840   -0.7732   -3.6760 N   0  0  0  0  0  0  0  0  0  0  0  0
   -7.5692   -0.7116   -3.2353 N   0  0  0  0  0  0  0  0  0  0  0  0
   -7.5148   -0.5295   -1.9288 C   0  0  0  0  0  0  0  0  0  0  0  0
   -8.7078   -0.4212   -1.0667 C   0  0  0  0  0  0  0  0  0  0  0  0
   -4.1203   -0.3373   -0.2430 C   0  0  0  0  0  0  0  0  0  0  0  0
   -1.1669    0.5629    0.1026 C   0  0  0  0  0  0  0  0  0  0  0  0
    0.2326    0.5151    0.1208 C   0  0  0  0  0  0  0  0  0  0  0  0
    5.0732    2.0042    0.1444 C   0  0  0  0  0  0  0  0  0  0  0  0
    4.5328    3.0996    0.1089 O   0  0  0  0  0  0  0  0  0  0  0  0
    6.3013    1.6776   -0.3964 N   0  0  0  0  0  0  0  0  0  0  0  0
  1  2  1  0
  2  3  1  0
  3  4  1  0
  4  5  1  0
  5  6  1  6
  6  7  1  0
  7  8  2  0
  7  9  1  0
  9 10  2  0
 10 11  1  0
 11 12  2  0
 12 13  1  0
 13 14  2  0
 14 15  1  0
 15 16  2  0
 16 17  1  0
 17 18  1  0
 18 19  1  0
 19 20  2  0
 20 21  1  0
 21 22  2  0
 22 23  1  0
 17 24  2  0
 12 25  1  0
 25 26  2  0
  5 27  1  0
 27 28  2  0
 27 29  1  0
 29  3  1  0
 26  9  1  0
 24 13  1  0
 22 18  1  0
M  END
>  <energy>  (308) 
114.02

>  <full_id>  (308) 
MOL00012852-000865-02_1

>  <mol_id>  (308) 
MOL00012852-000865-02

>  <act_mol>  (308) 
0

>  <act_conf>  (308) 
0

$$$$
MOL00012975-000967-04
     RDKit          3D

 28 29  0  0  0  0  0  0  0  0999 V2000
   -1.4088   -4.7800   -0.9011 C   0  0  0  0  0  0  0  0  0  0  0  0
   -1.2691   -3.2989   -1.2324 C   0  0  1  0  0  0  0  0  0  0  0  0
   -2.2729   -2.5209   -0.4880 N   0  0  0  0  0  0  0  0  0  0  0  0
   -2.4565   -1.1784   -0.7607 C   0  0  0  0  0  0  0  0  0  0  0  0
   -1.5971   -0.5114   -1.3312 O   0  0  0  0  0  0  0  0  0  0  0  0
   -3.7116   -0.5300   -0.2912 C   0  0  0  0  0  0  0  0  0  0  0  0
   -3.8233    0.8648   -0.4127 C   0  0  0  0  0  0  0  0  0  0  0  0
   -4.9787    1.5253    0.0130 C   0  0  0  0  0  0  0  0  0  0  0  0
   -6.0341    0.7981    0.5621 C   0  0  0  0  0  0  0  0  0  0  0  0
   -5.9304   -0.5876    0.6822 C   0  0  0  0  0  0  0  0  0  0  0  0
   -7.2427   -1.4743    1.3591 Cl  0  0  0  0  0  0  0  0  0  0  0  0
   -4.7761   -1.2480    0.2574 C   0  0  0  0  0  0  0  0  0  0  0  0
   -4.7015   -2.5849    0.3756 F   0  0  0  0  0  0  0  0  0  0  0  0
    0.1836   -2.8673   -0.9356 C   0  0  0  0  0  0  0  0  0  0  0  0
    1.1183   -3.1363   -1.6872 O   0  0  0  0  0  0  0  0  0  0  0  0
    0.3655   -2.2545    0.2875 N   0  0  0  0  0  0  0  0  0  0  0  0
    1.6003   -1.5427    0.5737 C   0  0  0  0  0  0  0  0  0  0  0  0
    1.7484   -0.2614   -0.2756 C   0  0  1  0  0  0  0  0  0  0  0  0
    0.6153    0.5899   -0.0570 O   0  0  0  0  0  0  0  0  0  0  0  0
    3.0234    0.4806    0.0768 C   0  0  0  0  0  0  0  0  0  0  0  0
    4.2184    0.1593   -0.5894 C   0  0  0  0  0  0  0  0  0  0  0  0
    5.4117    0.8130   -0.2712 C   0  0  0  0  0  0  0  0  0  0  0  0
    5.4147    1.7959    0.7258 C   0  0  0  0  0  0  0  0  0  0  0  0
    6.6652    2.4862    1.0637 N   0  0  0  0  0  4  0  0  0  0  0  0
    7.6860    2.1735    0.4336 O   0  0  0  0  0  0  0  0  0  0  0  0
    6.6297    3.3401    1.9617 O   0  0  0  0  0  1  0  0  0  0  0  0
    4.2357    2.1247    1.4046 C   0  0  0  0  0  0  0  0  0  0  0  0
    3.0482    1.4646    1.0789 C   0  0  0  0  0  0  0  0  0  0  0  0
  2  1  1  1
  2  3  1  0
  3  4  1  0
  4  5  2  0
  4  6  1  0
  6  7  2  0
  7  8  1  0
  8  9  2  0
  9 10  1  0
 10 11  1  0
 10 12  2  0
 12 13  1  0
  2 14  1  0
 14 15  2  0
 14 16  1  0
 16 17  1  0
 17 18  1  0
 18 19  1  1
 18 20  1  0
 20 21  2  0
 21 22  1  0
 22 23  2  0
 23 24  1  0
 24 25  2  0
 24 26  1  0
 23 27  1  0
 27 28  2  0
 12  6  1  0
 28 20  1  0
M  CHG  2  24   1  26  -1
M  END
>  <energy>  (309) 
85.86

>  <full_id>  (309) 
MOL00012975-000967-04_1

>  <mol_id>  (309) 
MOL00012975-000967-04

>  <act_mol>  (309) 
0

>  <act_conf>  (309) 
0

$$$$
MOL00012754-002104-03
     RDKit          3D

 35 40  0  0  0  0  0  0  0  0999 V2000
   -7.6142   -0.6900    0.0844 C   0  0  0  0  0  0  0  0  0  0  0  0
   -6.2328   -0.1409   -0.3169 C   0  0  2  0  0  0  0  0  0  0  0  0
   -6.3927    1.2886   -0.8702 C   0  0  0  0  0  0  0  0  0  0  0  0
   -6.6570    1.1302   -2.3690 C   0  0  0  0  0  0  0  0  0  0  0  0
   -6.3652   -0.3369   -2.7143 C   0  0  1  0  0  0  0  0  0  0  0  0
   -5.6200   -0.4317   -3.9252 O   0  0  0  0  0  0  0  0  0  0  0  0
   -5.5831   -0.9101   -1.5020 C   0  0  2  0  0  0  0  0  0  0  0  0
   -5.6883   -2.4387   -1.4332 C   0  0  0  0  0  0  0  0  0  0  0  0
   -4.1515   -0.5469   -1.6721 N   0  0  0  0  0  0  0  0  0  0  0  0
   -3.4588   -0.3936   -0.4569 C   0  0  0  0  0  0  0  0  0  0  0  0
   -2.0545   -0.3408   -0.4745 C   0  0  0  0  0  0  0  0  0  0  0  0
   -1.2902   -0.1303    0.6923 C   0  0  0  0  0  0  0  0  0  0  0  0
    0.1066   -0.1282    0.5792 N   0  0  0  0  0  0  0  0  0  0  0  0
    1.1500    0.0222    1.4911 C   0  0  0  0  0  0  0  0  0  0  0  0
    0.9321    0.0779    2.7996 N   0  0  0  0  0  0  0  0  0  0  0  0
    2.0122    0.2260    3.5552 C   0  0  0  0  0  0  0  0  0  0  0  0
    3.2605    0.3207    3.1197 N   0  0  0  0  0  0  0  0  0  0  0  0
    3.3840    0.2502    1.7946 C   0  0  0  0  0  0  0  0  0  0  0  0
    4.7454    0.3565    1.2239 C   0  0  0  0  0  0  0  0  0  0  0  0
    4.9796    0.2244   -0.1591 C   0  0  0  0  0  0  0  0  0  0  0  0
    6.2674    0.3303   -0.7045 C   0  0  0  0  0  0  0  0  0  0  0  0
    7.3633    0.5727    0.1264 C   0  0  0  0  0  0  0  0  0  0  0  0
    8.7498    0.7023   -0.4012 C   0  0  0  0  0  0  0  0  0  0  0  0
    9.6784    1.0097    0.3354 O   0  0  0  0  0  0  0  0  0  0  0  0
    8.9991    0.4782   -1.8522 C   0  0  0  0  0  0  0  0  0  0  0  0
   10.2926   -0.1712   -2.2943 C   0  0  0  0  0  0  0  0  0  0  0  0
    9.0025   -0.9214   -2.4253 C   0  0  0  0  0  0  0  0  0  0  0  0
    7.1562    0.7083    1.5018 C   0  0  0  0  0  0  0  0  0  0  0  0
    5.8673    0.5999    2.0388 C   0  0  0  0  0  0  0  0  0  0  0  0
    2.3630    0.0973    0.9449 N   0  0  0  0  0  0  0  0  0  0  0  0
   -1.9768    0.0278    1.8975 C   0  0  0  0  0  0  0  0  0  0  0  0
   -3.3682    0.0179    1.9184 C   0  0  0  0  0  0  0  0  0  0  0  0
   -4.0020    0.2073    3.1178 O   0  0  0  0  0  0  0  0  0  0  0  0
   -4.1135   -0.1691    0.7538 C   0  0  0  0  0  0  0  0  0  0  0  0
   -5.4757   -0.1390    0.9021 O   0  0  0  0  0  0  0  0  0  0  0  0
  2  1  1  1
  2  3  1  0
  3  4  1  0
  4  5  1  0
  5  6  1  6
  5  7  1  0
  7  8  1  1
  7  9  1  0
  9 10  1  0
 10 11  2  0
 11 12  1  0
 12 13  1  0
 13 14  1  0
 14 15  2  0
 15 16  1  0
 16 17  2  0
 17 18  1  0
 18 19  1  0
 19 20  2  0
 20 21  1  0
 21 22  2  0
 22 23  1  0
 23 24  2  0
 25 23  1  0
 25 26  1  0
 26 27  1  0
 22 28  1  0
 28 29  2  0
 18 30  2  0
 12 31  2  0
 31 32  1  0
 32 33  1  0
 32 34  2  0
 34 35  1  0
  7  2  1  0
 34 10  1  0
 35  2  1  0
 30 14  1  0
 29 19  1  0
 27 25  1  0
M  END
>  <energy>  (310) 
52.05

>  <full_id>  (310) 
MOL00012754-002104-03_1

>  <mol_id>  (310) 
MOL00012754-002104-03

>  <act_mol>  (310) 
0

>  <act_conf>  (310) 
0

$$$$
MOL00012781-000045-00
     RDKit          3D

 36 39  0  0  0  0  0  0  0  0999 V2000
   -5.3894    1.7699    0.5970 C   0  0  0  0  0  0  0  0  0  0  0  0
   -4.5849    3.0540    0.4281 C   0  0  0  0  0  0  0  0  0  0  0  0
   -3.1995    2.8014   -0.2018 C   0  0  2  0  0  0  0  0  0  0  0  0
   -2.3968    2.0569    0.7761 N   0  0  0  0  0  0  0  0  0  0  0  0
   -1.6394    1.0044    0.2885 C   0  0  0  0  0  0  0  0  0  0  0  0
   -0.4524    0.8374    0.8498 N   0  0  0  0  0  0  0  0  0  0  0  0
    0.2530   -0.1848    0.3836 C   0  0  0  0  0  0  0  0  0  0  0  0
    1.4978   -0.3227    0.9866 N   0  0  0  0  0  0  0  0  0  0  0  0
    2.3994   -1.3306    0.7557 C   0  0  0  0  0  0  0  0  0  0  0  0
    2.2333   -2.3205    0.0533 O   0  0  0  0  0  0  0  0  0  0  0  0
    3.6912   -1.1928    1.4894 C   0  0  0  0  0  0  0  0  0  0  0  0
    4.2582    0.0556    1.7665 C   0  0  0  0  0  0  0  0  0  0  0  0
    5.4736    0.1290    2.4536 C   0  0  0  0  0  0  0  0  0  0  0  0
    6.1428   -1.0304    2.8580 C   0  0  0  0  0  0  0  0  0  0  0  0
    7.3144   -0.8001    3.5199 O   0  0  0  0  0  0  0  0  0  0  0  0
    8.1834   -1.9007    3.8076 C   0  0  0  0  0  0  0  0  0  0  0  0
    9.6067   -1.3459    3.8122 C   0  0  0  0  0  0  0  0  0  0  0  0
    7.8451   -2.4822    5.1770 C   0  0  0  0  0  0  0  0  0  0  0  0
    5.5806   -2.2738    2.5734 C   0  0  0  0  0  0  0  0  0  0  0  0
    4.3637   -2.3550    1.8855 C   0  0  0  0  0  0  0  0  0  0  0  0
   -0.1414   -1.0005   -0.5783 N   0  0  0  0  0  0  0  0  0  0  0  0
   -1.3375   -0.7544   -1.0797 C   0  0  0  0  0  0  0  0  0  0  0  0
   -1.7367   -1.6057   -2.1043 N   0  0  0  0  0  0  0  0  0  0  0  0
   -3.1614   -1.9355   -2.1651 C   0  0  0  0  0  0  0  0  0  0  0  0
   -3.3405   -3.4044   -2.5986 C   0  0  0  0  0  0  0  0  0  0  0  0
   -2.7057   -3.7791   -3.9379 C   0  0  0  0  0  0  0  0  0  0  0  0
   -3.5762   -3.5231   -5.1630 C   0  0  0  0  0  0  0  0  0  0  0  0
   -4.3510   -2.2108   -5.2040 C   0  0  0  0  0  0  0  0  0  0  0  0
   -3.6526   -1.0200   -4.5563 C   0  0  0  0  0  0  0  0  0  0  0  0
   -3.9139   -0.9303   -3.0511 C   0  0  0  0  0  0  0  0  0  0  0  0
   -2.1226    0.2300   -0.6708 N   0  0  0  0  0  0  0  0  0  0  0  0
   -2.4992    4.1560   -0.5226 C   0  0  2  0  0  0  0  0  0  0  0  0
   -1.2926    4.0273   -1.4474 C   0  0  0  0  0  0  0  0  0  0  0  0
   -0.4821    5.2894   -1.1810 C   0  0  0  0  0  0  0  0  0  0  0  0
   -1.0291    5.8542    0.1226 C   0  0  0  0  0  0  0  0  0  0  0  0
   -1.8992    4.8099    0.6603 N   0  0  0  0  0  0  0  0  0  0  0  0
  1  2  1  0
  3  2  1  1
  3  4  1  0
  4  5  1  0
  5  6  2  0
  6  7  1  0
  7  8  1  0
  8  9  1  0
  9 10  2  0
  9 11  1  0
 11 12  2  0
 12 13  1  0
 13 14  2  0
 14 15  1  0
 15 16  1  0
 16 17  1  0
 16 18  1  0
 14 19  1  0
 19 20  2  0
  7 21  2  0
 21 22  1  0
 22 23  1  0
 24 23  1  0
 24 25  1  0
 25 26  1  0
 26 27  1  0
 27 28  1  0
 28 29  1  0
 29 30  1  0
 22 31  2  0
  3 32  1  0
 32 33  1  6
 33 34  1  0
 34 35  1  0
 35 36  1  0
 31  5  1  0
 36 32  1  0
 20 11  1  0
 30 24  1  0
M  END
>  <energy>  (311) 
-216.33

>  <full_id>  (311) 
MOL00012781-000045-00_1

>  <mol_id>  (311) 
MOL00012781-000045-00

>  <act_mol>  (311) 
0

>  <act_conf>  (311) 
0

$$$$
MOL00013261-000514-04
     RDKit          3D

 23 24  0  0  0  0  0  0  0  0999 V2000
   -6.7833   -0.3163    1.2688 C   0  0  0  0  0  0  0  0  0  0  0  0
   -5.3813   -0.3039    0.9381 N   0  0  0  0  0  0  0  0  0  0  0  0
   -4.8063    0.7651    0.2866 C   0  0  0  0  0  0  0  0  0  0  0  0
   -5.4568    1.7277   -0.1097 O   0  0  0  0  0  0  0  0  0  0  0  0
   -3.3324    0.7293    0.0689 C   0  0  0  0  0  0  0  0  0  0  0  0
   -2.7366    1.7894   -0.6263 C   0  0  0  0  0  0  0  0  0  0  0  0
   -1.3562    1.8004   -0.8577 C   0  0  0  0  0  0  0  0  0  0  0  0
   -0.5381    0.7576   -0.4002 C   0  0  0  0  0  0  0  0  0  0  0  0
    0.8509    0.8218   -0.6910 N   0  0  0  0  0  0  0  0  0  0  0  0
    1.7375   -0.1926   -0.4807 C   0  0  0  0  0  0  0  0  0  0  0  0
    2.9117   -0.2120    0.2571 C   0  0  0  0  0  0  0  0  0  0  0  0
    3.4457    0.9127    1.0025 C   0  0  0  0  0  0  0  0  0  0  0  0
    2.9291    2.0263    0.9911 O   0  0  0  0  0  0  0  0  0  0  0  0
    4.5738    0.6037    1.7041 O   0  0  0  0  0  0  0  0  0  0  0  0
    5.1192    1.6955    2.4450 C   0  0  0  0  0  0  0  0  0  0  0  0
    3.3996   -1.5416    0.1115 C   0  0  0  0  0  0  0  0  0  0  0  0
    4.6116   -2.1590    0.7089 C   0  0  0  0  0  0  0  0  0  0  0  0
    2.6182   -2.2769   -0.6896 N   0  0  0  0  0  0  0  0  0  0  0  0
    1.6563   -1.4221   -1.0893 N   0  0  0  0  0  0  0  0  0  0  0  0
    0.7315   -1.8558   -2.1104 C   0  0  0  0  0  0  0  0  0  0  0  0
   -1.1382   -0.2991    0.2920 C   0  0  0  0  0  0  0  0  0  0  0  0
   -2.5159   -0.3065    0.5229 C   0  0  0  0  0  0  0  0  0  0  0  0
   -3.0278   -1.3447    1.2034 F   0  0  0  0  0  0  0  0  0  0  0  0
  1  2  1  0
  2  3  1  0
  3  4  2  0
  3  5  1  0
  5  6  2  0
  6  7  1  0
  7  8  2  0
  8  9  1  0
  9 10  1  0
 10 11  2  0
 11 12  1  0
 12 13  2  0
 12 14  1  0
 14 15  1  0
 11 16  1  0
 16 17  1  0
 16 18  2  0
 18 19  1  0
 19 20  1  0
  8 21  1  0
 21 22  2  0
 22 23  1  0
 22  5  1  0
 19 10  1  0
M  END
>  <energy>  (312) 
24.33

>  <full_id>  (312) 
MOL00013261-000514-04_1

>  <mol_id>  (312) 
MOL00013261-000514-04

>  <act_mol>  (312) 
0

>  <act_conf>  (312) 
0

$$$$
MOL00013656-000538-02
     RDKit          3D

 22 23  0  0  0  0  0  0  0  0999 V2000
    4.3967    3.6986    0.9890 C   0  0  0  0  0  0  0  0  0  0  0  0
    3.2730    2.9011    0.6185 O   0  0  0  0  0  0  0  0  0  0  0  0
    3.5240    2.0324   -0.3905 C   0  0  0  0  0  0  0  0  0  0  0  0
    4.5985    1.8966   -0.9565 O   0  0  0  0  0  0  0  0  0  0  0  0
    2.3970    1.3224   -0.6620 N   0  0  0  0  0  0  0  0  0  0  0  0
    2.3601    0.2215   -1.5930 C   0  0  0  0  0  0  0  0  0  0  0  0
    2.8836   -1.0867   -0.9974 C   0  0  0  0  0  0  0  0  0  0  0  0
    2.1857   -1.5342    0.2995 C   0  0  2  0  0  0  0  0  0  0  0  0
    2.8398   -2.8072    0.8354 C   0  0  0  0  0  0  0  0  0  0  0  0
    0.7662   -1.7705    0.1049 N   0  0  0  0  0  0  0  0  0  0  0  0
   -0.2075   -0.8139    0.3089 C   0  0  0  0  0  0  0  0  0  0  0  0
    0.0351    0.3201    0.7152 O   0  0  0  0  0  0  0  0  0  0  0  0
   -1.5581   -1.2849   -0.0367 C   0  0  0  0  0  0  0  0  0  0  0  0
   -1.7621   -2.5271   -0.5316 N   0  0  0  0  0  0  0  0  0  0  0  0
   -3.0928   -2.5821   -0.7179 N   0  0  0  0  0  0  0  0  0  0  0  0
   -3.7610   -1.4393   -0.3775 C   0  0  0  0  0  0  0  0  0  0  0  0
   -5.1185   -1.1110   -0.4238 C   0  0  0  0  0  0  0  0  0  0  0  0
   -5.4805    0.1706    0.0071 C   0  0  0  0  0  0  0  0  0  0  0  0
   -4.5250    1.0908    0.4557 C   0  0  0  0  0  0  0  0  0  0  0  0
   -4.9498    2.4463    0.9424 C   0  0  0  0  0  0  0  0  0  0  0  0
   -3.1692    0.7226    0.5036 C   0  0  0  0  0  0  0  0  0  0  0  0
   -2.7827   -0.5624    0.0734 C   0  0  0  0  0  0  0  0  0  0  0  0
  1  2  1  0
  2  3  1  0
  3  4  2  0
  3  5  1  0
  5  6  1  0
  6  7  1  0
  7  8  1  0
  8  9  1  6
  8 10  1  0
 10 11  1  0
 11 12  2  0
 11 13  1  0
 13 14  2  0
 14 15  1  0
 15 16  1  0
 16 17  2  0
 17 18  1  0
 18 19  2  0
 19 20  1  0
 19 21  1  0
 21 22  2  0
 22 13  1  0
 22 16  1  0
M  END
>  <energy>  (313) 
-27.89

>  <full_id>  (313) 
MOL00013656-000538-02_1

>  <mol_id>  (313) 
MOL00013656-000538-02

>  <act_mol>  (313) 
0

>  <act_conf>  (313) 
0

$$$$
MOL00013616-000326-02
     RDKit          3D

 31 33  0  0  0  0  0  0  0  0999 V2000
    5.0600   -0.5711   -2.0594 C   0  0  0  0  0  0  0  0  0  0  0  0
    5.3649   -0.5516   -0.5858 C   0  0  0  0  0  0  0  0  0  0  0  0
    6.6611   -0.8944   -0.1611 C   0  0  0  0  0  0  0  0  0  0  0  0
    6.9970   -0.8852    1.1916 C   0  0  0  0  0  0  0  0  0  0  0  0
    6.0412   -0.5378    2.1380 C   0  0  0  0  0  0  0  0  0  0  0  0
    4.7507   -0.1982    1.7292 C   0  0  0  0  0  0  0  0  0  0  0  0
    4.3894   -0.1997    0.3716 C   0  0  0  0  0  0  0  0  0  0  0  0
    3.0825    0.1614   -0.0213 N   0  0  0  0  0  0  0  0  0  0  0  0
    2.2279    1.1800    0.4715 C   0  0  0  0  0  0  0  0  0  0  0  0
    2.7389    2.2750    1.1685 C   0  0  0  0  0  0  0  0  0  0  0  0
    1.8635    3.2379    1.6264 C   0  0  0  0  0  0  0  0  0  0  0  0
    0.5289    3.1851    1.4474 N   0  0  0  0  0  0  0  0  0  0  0  0
    0.0210    2.1319    0.7920 C   0  0  0  0  0  0  0  0  0  0  0  0
   -1.3576    2.0789    0.6154 C   0  0  0  0  0  0  0  0  0  0  0  0
   -1.9932    1.0235   -0.0491 C   0  0  0  0  0  0  0  0  0  0  0  0
   -3.3412    0.9334   -0.2275 O   0  0  0  0  0  0  0  0  0  0  0  0
   -4.1673    2.0815   -0.0350 C   0  0  1  0  0  0  0  0  0  0  0  0
   -5.4004    1.8773   -0.9094 C   0  0  0  0  0  0  0  0  0  0  0  0
   -4.6069    2.2240    1.4206 C   0  0  0  0  0  0  0  0  0  0  0  0
   -4.3758    1.4566    2.3416 O   0  0  0  0  0  0  0  0  0  0  0  0
   -5.2986    3.3611    1.6496 O   0  0  0  0  0  0  0  0  0  0  0  0
   -1.2077   -0.0297   -0.5170 C   0  0  0  0  0  0  0  0  0  0  0  0
   -1.9102   -1.4117   -1.4092 S   0  0  0  0  0  6  0  0  0  0  0  0
   -0.7975   -2.0438   -2.1031 O   0  0  0  0  0  0  0  0  0  0  0  0
   -3.0263   -0.9240   -2.1985 O   0  0  0  0  0  0  0  0  0  0  0  0
   -2.5166   -2.5910   -0.1571 C   0  0  0  0  0  0  0  0  0  0  0  0
   -1.3703   -3.0240    0.7690 C   0  0  0  0  0  0  0  0  0  0  0  0
   -3.6539   -1.9943    0.6791 C   0  0  0  0  0  0  0  0  0  0  0  0
   -3.0510   -3.8290   -0.9012 C   0  0  0  0  0  0  0  0  0  0  0  0
    0.1859    0.0078   -0.3638 C   0  0  0  0  0  0  0  0  0  0  0  0
    0.8224    1.0883    0.2849 C   0  0  0  0  0  0  0  0  0  0  0  0
  1  2  1  0
  2  3  2  0
  3  4  1  0
  4  5  2  0
  5  6  1  0
  6  7  2  0
  7  8  1  0
  8  9  1  0
  9 10  2  0
 10 11  1  0
 11 12  2  0
 12 13  1  0
 13 14  2  0
 14 15  1  0
 15 16  1  0
 16 17  1  0
 17 18  1  6
 17 19  1  0
 19 20  2  0
 19 21  1  0
 15 22  2  0
 23 22  1  0
 23 24  2  0
 23 25  2  0
 23 26  1  0
 26 27  1  0
 26 28  1  0
 26 29  1  0
 22 30  1  0
 30 31  2  0
  7  2  1  0
 31  9  1  0
 31 13  1  0
M  END
>  <energy>  (314) 
87.26

>  <full_id>  (314) 
MOL00013616-000326-02_1

>  <mol_id>  (314) 
MOL00013616-000326-02

>  <act_mol>  (314) 
0

>  <act_conf>  (314) 
0

$$$$
MOL00013072-001961-03
     RDKit          3D

 34 35  0  0  0  0  0  0  0  0999 V2000
    5.0516    2.8831   -3.2528 C   0  0  0  0  0  0  0  0  0  0  0  0
    5.2585    1.3907   -3.2472 C   0  0  0  0  0  0  0  0  0  0  0  0
    5.9392    0.8268   -4.1001 O   0  0  0  0  0  0  0  0  0  0  0  0
    4.5984    0.5816   -2.1847 C   0  0  0  0  0  0  0  0  0  0  0  0
    3.2904    0.9268   -1.8091 C   0  0  0  0  0  0  0  0  0  0  0  0
    2.5931    0.1647   -0.8640 C   0  0  0  0  0  0  0  0  0  0  0  0
    1.2077    0.5889   -0.5023 C   0  0  0  0  0  0  0  0  0  0  0  0
    0.5690    1.2699   -1.3010 O   0  0  0  0  0  0  0  0  0  0  0  0
    0.7184    0.1285    0.7065 N   0  0  0  0  0  0  0  0  0  0  0  0
   -0.1782    0.8686    1.4432 C   0  0  0  0  0  0  0  0  0  0  0  0
    0.2298    1.3211    2.5147 O   0  0  0  0  0  0  0  0  0  0  0  0
   -1.4583    1.0574    0.9165 N   0  0  0  0  0  0  0  0  0  0  0  0
   -1.7770    0.5874   -0.3754 N   0  0  0  0  0  0  0  0  0  0  0  0
   -2.1261   -0.7287   -0.5319 C   0  0  0  0  0  0  0  0  0  0  0  0
   -2.4747   -1.4879    0.3610 O   0  0  0  0  0  0  0  0  0  0  0  0
   -1.9829   -1.0630   -1.8360 O   0  0  0  0  0  0  0  0  0  0  0  0
   -2.3085   -2.3961   -2.3024 C   0  0  0  0  0  0  0  0  0  0  0  0
   -3.8095   -2.6669   -2.1661 C   0  0  0  0  0  0  0  0  0  0  0  0
   -1.4639   -3.4677   -1.6040 C   0  0  0  0  0  0  0  0  0  0  0  0
   -1.9443   -2.3868   -3.7934 C   0  0  0  0  0  0  0  0  0  0  0  0
   -2.4773    1.7552    1.6324 C   0  0  0  0  0  0  0  0  0  0  0  0
   -3.1510    2.8473    1.0289 C   0  0  0  0  0  0  0  0  0  0  0  0
   -2.8116    3.3596   -0.3465 C   0  0  0  0  0  0  0  0  0  0  0  0
   -4.1689    3.5096    1.7403 C   0  0  0  0  0  0  0  0  0  0  0  0
   -4.5093    3.1257    3.0354 C   0  0  0  0  0  0  0  0  0  0  0  0
   -3.8517    2.0565    3.6328 C   0  0  0  0  0  0  0  0  0  0  0  0
   -2.8507    1.3658    2.9396 C   0  0  0  0  0  0  0  0  0  0  0  0
   -2.2325   -0.0555    3.7182 Cl  0  0  0  0  0  0  0  0  0  0  0  0
    3.1950   -0.9763   -0.3272 C   0  0  0  0  0  0  0  0  0  0  0  0
    4.4986   -1.3227   -0.6971 C   0  0  0  0  0  0  0  0  0  0  0  0
    5.2376   -0.5369   -1.6046 C   0  0  0  0  0  0  0  0  0  0  0  0
    6.6592   -0.9366   -1.9780 C   0  0  0  0  0  0  0  0  0  0  0  0
    7.4371   -1.5155   -0.8681 C   0  0  0  0  0  0  0  0  0  0  0  0
    8.0357   -1.9676    0.0179 N   0  0  0  0  0  0  0  0  0  0  0  0
  1  2  1  0
  2  3  2  0
  2  4  1  0
  4  5  2  0
  5  6  1  0
  6  7  1  0
  7  8  2  0
  7  9  1  0
  9 10  1  0
 10 11  2  0
 10 12  1  0
 12 13  1  0
 13 14  1  0
 14 15  2  0
 14 16  1  0
 16 17  1  0
 17 18  1  0
 17 19  1  0
 17 20  1  0
 12 21  1  0
 21 22  2  0
 22 23  1  0
 22 24  1  0
 24 25  2  0
 25 26  1  0
 26 27  2  0
 27 28  1  0
  6 29  2  0
 29 30  1  0
 30 31  2  0
 31 32  1  0
 32 33  1  0
 33 34  3  0
 31  4  1  0
 27 21  1  0
M  END
>  <energy>  (315) 
39.45

>  <full_id>  (315) 
MOL00013072-001961-03_1

>  <mol_id>  (315) 
MOL00013072-001961-03

>  <act_mol>  (315) 
0

>  <act_conf>  (315) 
0

$$$$
MOL00013287-000016-04
     RDKit          3D

 27 29  0  0  0  0  0  0  0  0999 V2000
    8.3393   -2.4122    0.5520 C   0  0  0  0  0  0  0  0  0  0  0  0
    7.3381   -1.4436    0.8661 O   0  0  0  0  0  0  0  0  0  0  0  0
    7.3100   -0.3821    0.0145 C   0  0  0  0  0  0  0  0  0  0  0  0
    8.0604   -0.2183   -0.9385 O   0  0  0  0  0  0  0  0  0  0  0  0
    6.2208    0.5854    0.4073 C   0  0  0  0  0  0  0  0  0  0  0  0
    4.8139    0.0092    0.1960 C   0  0  1  0  0  0  0  0  0  0  0  0
    3.7641    0.9526    0.8012 C   0  0  0  0  0  0  0  0  0  0  0  0
    2.3398    0.4451    0.5759 C   0  0  0  0  0  0  0  0  0  0  0  0
    2.0484    0.2157   -0.9156 C   0  0  2  0  0  0  0  0  0  0  0  0
    0.7203   -0.3683   -1.1121 N   0  0  0  0  0  0  0  0  0  0  0  0
   -0.3823    0.5394   -0.9881 C   0  0  1  0  0  0  0  0  0  0  0  0
   -0.4847    1.2511   -2.2205 N   0  0  0  0  0  0  0  0  0  0  0  0
   -1.7025    2.0173   -2.2536 C   0  0  2  0  0  0  0  0  0  0  0  0
   -1.2100    3.7128   -2.1505 Cl  0  0  0  0  0  0  0  0  0  0  0  0
   -2.5186    1.7648   -1.1044 N   0  0  0  0  0  0  0  0  0  0  0  0
   -2.7531    0.3610   -1.0474 C   0  0  2  0  0  0  0  0  0  0  0  0
   -3.5511    0.2019    0.1287 N   0  0  0  0  0  0  0  0  0  0  0  0
   -4.1420   -1.1223    0.3388 C   0  0  1  0  0  0  0  0  0  0  0  0
   -4.6528   -1.2131    1.7913 C   0  0  0  0  0  0  0  0  0  0  0  0
   -5.8446   -0.2937    2.0592 C   0  0  0  0  0  0  0  0  0  0  0  0
   -6.9808   -0.5439    1.0702 C   0  0  1  0  0  0  0  0  0  0  0  0
   -8.0025    0.4214    1.2927 O   0  0  0  0  0  0  0  0  0  0  0  0
   -6.5022   -0.4672   -0.3787 C   0  0  0  0  0  0  0  0  0  0  0  0
   -5.3129   -1.3950   -0.6238 C   0  0  0  0  0  0  0  0  0  0  0  0
   -1.5143   -0.3246   -0.8892 N   0  0  0  0  0  0  0  0  0  0  0  0
    3.0947   -0.7419   -1.5105 C   0  0  0  0  0  0  0  0  0  0  0  0
    4.5187   -0.2311   -1.2928 C   0  0  0  0  0  0  0  0  0  0  0  0
  1  2  1  0
  2  3  1  0
  3  4  2  0
  3  5  1  0
  6  5  1  6
  6  7  1  0
  7  8  1  0
  8  9  1  0
  9 10  1  1
 11 10  1  6
 11 12  1  0
 12 13  1  0
 13 14  1  1
 13 15  1  0
 15 16  1  0
 16 17  1  1
 18 17  1  6
 18 19  1  0
 19 20  1  0
 20 21  1  0
 21 22  1  6
 21 23  1  0
 23 24  1  0
 16 25  1  0
  9 26  1  0
 26 27  1  0
 27  6  1  0
 25 11  1  0
 24 18  1  0
M  END
>  <energy>  (316) 
-457.80

>  <full_id>  (316) 
MOL00013287-000016-04_1

>  <mol_id>  (316) 
MOL00013287-000016-04

>  <act_mol>  (316) 
0

>  <act_conf>  (316) 
0

$$$$
MOL00013283-000443-02
     RDKit          3D

 32 34  0  0  0  0  0  0  0  0999 V2000
    8.0750   -1.6239    0.3352 C   0  0  0  0  0  0  0  0  0  0  0  0
    7.1574   -0.6925   -0.4529 C   0  0  0  0  0  0  0  0  0  0  0  0
    5.6844   -0.8675   -0.1652 C   0  0  0  0  0  0  0  0  0  0  0  0
    5.3238   -2.0018    0.4741 N   0  0  0  0  0  0  0  0  0  0  0  0
    4.0269   -2.1594    0.7832 C   0  0  0  0  0  0  0  0  0  0  0  0
    3.6028   -3.6376    1.6640 S   0  0  0  0  0  0  0  0  0  0  0  0
    2.1461   -4.1363    0.7145 C   0  0  0  0  0  0  0  0  0  0  0  0
    3.0607   -1.2733    0.5047 N   0  0  0  0  0  0  0  0  0  0  0  0
    3.4145   -0.1387   -0.1359 C   0  0  0  0  0  0  0  0  0  0  0  0
    2.4282    0.8252   -0.4806 N   0  0  0  0  0  0  0  0  0  0  0  0
    1.0319    0.8250   -0.3021 C   0  0  0  0  0  0  0  0  0  0  0  0
    0.3478    2.0454   -0.3880 C   0  0  0  0  0  0  0  0  0  0  0  0
   -1.0500    2.1168   -0.2867 C   0  0  0  0  0  0  0  0  0  0  0  0
   -1.8294    0.9682   -0.1161 C   0  0  0  0  0  0  0  0  0  0  0  0
   -3.2397    0.9999   -0.0546 N   0  0  0  0  0  0  0  0  0  0  0  0
   -3.8839    2.2920    0.2692 C   0  0  0  0  0  0  0  0  0  0  0  0
   -5.4054    2.1008    0.4519 C   0  0  0  0  0  0  0  0  0  0  0  0
   -6.0541    1.5204   -0.7497 N   0  0  0  0  0  0  0  0  0  0  0  0
   -7.4964    1.3562   -0.5089 C   0  0  0  0  0  0  0  0  0  0  0  0
   -8.2618    0.9380   -1.7605 C   0  0  0  0  0  0  0  0  0  0  0  0
   -5.3878    0.2368   -1.0695 C   0  0  0  0  0  0  0  0  0  0  0  0
   -3.8569    0.3797   -1.2572 C   0  0  0  0  0  0  0  0  0  0  0  0
   -1.1275   -0.2532   -0.0164 C   0  0  0  0  0  0  0  0  0  0  0  0
   -1.7634   -1.4516    0.2284 O   0  0  0  0  0  0  0  0  0  0  0  0
   -2.3442   -1.4515    1.5400 C   0  0  0  0  0  0  0  0  0  0  0  0
   -2.4344   -2.8347    2.0416 C   0  0  0  0  0  0  0  0  0  0  0  0
   -2.5217   -3.9202    2.4495 N   0  0  0  0  0  0  0  0  0  0  0  0
    0.2664   -0.3272   -0.1519 C   0  0  0  0  0  0  0  0  0  0  0  0
    4.7385    0.0817   -0.5286 C   0  0  0  0  0  0  0  0  0  0  0  0
    5.0851    1.3250   -1.2367 C   0  0  0  0  0  0  0  0  0  0  0  0
    5.8020    1.2226   -2.3953 N   0  0  0  0  0  0  0  0  0  0  0  0
    4.6917    2.4085   -0.8204 O   0  0  0  0  0  0  0  0  0  0  0  0
  1  2  1  0
  2  3  1  0
  3  4  2  0
  4  5  1  0
  5  6  1  0
  6  7  1  0
  5  8  2  0
  8  9  1  0
  9 10  1  0
 10 11  1  0
 11 12  2  0
 12 13  1  0
 13 14  2  0
 14 15  1  0
 15 16  1  0
 16 17  1  0
 17 18  1  0
 18 19  1  0
 19 20  1  0
 18 21  1  0
 21 22  1  0
 14 23  1  0
 23 24  1  0
 24 25  1  0
 25 26  1  0
 26 27  3  0
 23 28  2  0
  9 29  2  0
 29 30  1  0
 30 31  1  0
 30 32  2  0
 29  3  1  0
 28 11  1  0
 22 15  1  0
M  END
>  <energy>  (317) 
63.92

>  <full_id>  (317) 
MOL00013283-000443-02_1

>  <mol_id>  (317) 
MOL00013283-000443-02

>  <act_mol>  (317) 
0

>  <act_conf>  (317) 
0

$$$$
MOL00013325-000522-04
     RDKit          3D

 33 37  0  0  0  0  0  0  0  0999 V2000
   -9.7424    0.8174   -0.8396 N   0  0  0  0  0  0  0  0  0  0  0  0
   -9.1948    0.2952    0.4041 C   0  0  0  0  0  0  0  0  0  0  0  0
   -7.7179    0.5609    0.5054 C   0  0  0  0  0  0  0  0  0  0  0  0
   -7.2388    1.7297    1.1020 C   0  0  0  0  0  0  0  0  0  0  0  0
   -5.8692    1.9409    1.1505 C   0  0  0  0  0  0  0  0  0  0  0  0
   -4.9581    1.0865    0.6422 N   0  0  0  0  0  0  0  0  0  0  0  0
   -5.4396   -0.0337    0.0559 C   0  0  0  0  0  0  0  0  0  0  0  0
   -4.5707   -0.9618   -0.5177 O   0  0  0  0  0  0  0  0  0  0  0  0
   -3.2331   -0.6732   -0.4236 C   0  0  0  0  0  0  0  0  0  0  0  0
   -2.5999   -0.0075   -1.4682 C   0  0  0  0  0  0  0  0  0  0  0  0
   -1.2276    0.2372   -1.3957 C   0  0  0  0  0  0  0  0  0  0  0  0
   -0.4669   -0.1960   -0.2896 C   0  0  0  0  0  0  0  0  0  0  0  0
    0.9648    0.1079   -0.2648 C   0  0  0  0  0  0  0  0  0  0  0  0
    1.5474    0.8803    0.6277 N   0  0  0  0  0  0  0  0  0  0  0  0
    2.9091    0.9114    0.3916 C   0  0  0  0  0  0  0  0  0  0  0  0
    3.3539    0.1841   -0.6969 C   0  0  0  0  0  0  0  0  0  0  0  0
    4.7481   -0.0318   -1.2201 C   0  0  1  0  0  0  0  0  0  0  0  0
    5.5107    1.2938   -1.3731 C   0  0  0  0  0  0  0  0  0  0  0  0
    6.9310    1.0635   -1.8899 C   0  0  0  0  0  0  0  0  0  0  0  0
    7.7041    0.0847   -0.9981 C   0  0  2  0  0  0  0  0  0  0  0  0
    9.0187   -0.1713   -1.5789 N   0  0  0  0  0  0  0  0  0  0  0  0
    6.9436   -1.2355   -0.8311 C   0  0  0  0  0  0  0  0  0  0  0  0
    5.5247   -1.0010   -0.3130 C   0  0  0  0  0  0  0  0  0  0  0  0
    2.0075   -0.5633   -1.4576 S   0  0  0  0  0  0  0  0  0  0  0  0
   -1.1285   -0.8689    0.7524 C   0  0  0  0  0  0  0  0  0  0  0  0
   -0.2612   -1.5080    2.1683 S   0  0  0  0  0  6  0  0  0  0  0  0
   -1.1661   -2.4129    2.8583 O   0  0  0  0  0  0  0  0  0  0  0  0
    1.0407   -1.9863    1.7479 O   0  0  0  0  0  0  0  0  0  0  0  0
   -0.0055   -0.0641    3.2443 C   0  0  0  0  0  0  0  0  0  0  0  0
   -1.0774    0.1740    4.2749 C   0  0  0  0  0  0  0  0  0  0  0  0
    0.2438   -0.4181    4.6873 C   0  0  0  0  0  0  0  0  0  0  0  0
   -2.5078   -1.1225    0.6764 C   0  0  0  0  0  0  0  0  0  0  0  0
   -6.7914   -0.3356   -0.0357 C   0  0  0  0  0  0  0  0  0  0  0  0
  1  2  1  0
  2  3  1  0
  3  4  2  0
  4  5  1  0
  5  6  2  0
  6  7  1  0
  7  8  1  0
  8  9  1  0
  9 10  2  0
 10 11  1  0
 11 12  2  0
 12 13  1  0
 13 14  2  0
 14 15  1  0
 15 16  2  0
 17 16  1  1
 17 18  1  0
 18 19  1  0
 19 20  1  0
 20 21  1  6
 20 22  1  0
 22 23  1  0
 16 24  1  0
 12 25  1  0
 26 25  1  0
 26 27  2  0
 26 28  2  0
 26 29  1  0
 29 30  1  0
 30 31  1  0
 25 32  2  0
  7 33  2  0
 33  3  1  0
 32  9  1  0
 24 13  1  0
 31 29  1  0
 23 17  1  0
M  END
>  <energy>  (318) 
74.82

>  <full_id>  (318) 
MOL00013325-000522-04_1

>  <mol_id>  (318) 
MOL00013325-000522-04

>  <act_mol>  (318) 
0

>  <act_conf>  (318) 
0

$$$$
MOL00013755-001292-02
     RDKit          3D

 26 27  0  0  0  0  0  0  0  0999 V2000
    5.8281    3.0730   -1.0724 C   0  0  0  0  0  0  0  0  0  0  0  0
    4.5680    3.0217   -0.2223 C   0  0  0  0  0  0  0  0  0  0  0  0
    4.2035    1.6352    0.1547 C   0  0  0  0  0  0  0  0  0  0  0  0
    3.3356    0.9002   -0.5534 N   0  0  0  0  0  0  0  0  0  0  0  0
    3.2953   -0.3059    0.1483 O   0  0  0  0  0  0  0  0  0  0  0  0
    4.1476   -0.1679    1.2065 C   0  0  0  0  0  0  0  0  0  0  0  0
    4.2804   -1.3295    2.1146 C   0  0  0  0  0  0  0  0  0  0  0  0
    3.1957   -1.3340    3.1907 C   0  0  0  0  0  0  0  0  0  0  0  0
    1.8592   -1.5551    2.6744 N   0  0  0  0  0  0  0  0  0  0  0  0
    1.4489   -2.7783    2.1881 C   0  0  0  0  0  0  0  0  0  0  0  0
    2.1435   -3.7894    2.2379 O   0  0  0  0  0  0  0  0  0  0  0  0
    0.0491   -2.7681    1.5716 C   0  0  0  0  0  0  0  0  0  0  0  0
    0.0276   -2.0224    0.3252 N   0  0  0  0  0  0  0  0  0  0  0  0
   -0.0839   -0.6517    0.2912 C   0  0  0  0  0  0  0  0  0  0  0  0
   -0.0440    0.0209    1.3209 O   0  0  0  0  0  0  0  0  0  0  0  0
   -0.1653   -0.0351   -1.0954 C   0  0  0  0  0  0  0  0  0  0  0  0
   -1.3893   -0.8947   -2.1450 S   0  0  0  0  0  0  0  0  0  0  0  0
   -2.8704   -0.0081   -1.6670 C   0  0  0  0  0  0  0  0  0  0  0  0
   -3.4291   -0.2645   -0.4075 C   0  0  0  0  0  0  0  0  0  0  0  0
   -4.5832    0.4007    0.0099 C   0  0  0  0  0  0  0  0  0  0  0  0
   -5.2031    1.3322   -0.8269 C   0  0  0  0  0  0  0  0  0  0  0  0
   -6.4645    2.0178   -0.3937 C   0  0  0  0  0  0  0  0  0  0  0  0
   -4.6614    1.5694   -2.0959 C   0  0  0  0  0  0  0  0  0  0  0  0
   -3.4977    0.9089   -2.5304 C   0  0  0  0  0  0  0  0  0  0  0  0
   -2.9638    1.2135   -3.9041 C   0  0  0  0  0  0  0  0  0  0  0  0
    4.7297    1.0092    1.2572 N   0  0  0  0  0  0  0  0  0  0  0  0
  1  2  1  0
  2  3  1  0
  3  4  2  0
  4  5  1  0
  5  6  1  0
  6  7  1  0
  7  8  1  0
  8  9  1  0
  9 10  1  0
 10 11  2  0
 10 12  1  0
 12 13  1  0
 13 14  1  0
 14 15  2  0
 14 16  1  0
 16 17  1  0
 17 18  1  0
 18 19  2  0
 19 20  1  0
 20 21  2  0
 21 22  1  0
 21 23  1  0
 23 24  2  0
 24 25  1  0
  6 26  2  0
 26  3  1  0
 24 18  1  0
M  END
>  <energy>  (319) 
31.07

>  <full_id>  (319) 
MOL00013755-001292-02_1

>  <mol_id>  (319) 
MOL00013755-001292-02

>  <act_mol>  (319) 
0

>  <act_conf>  (319) 
0

$$$$
MOL00013790-001738-03
     RDKit          3D

 28 30  0  0  0  0  0  0  0  0999 V2000
   -3.6757    0.5461    3.9241 C   0  0  0  0  0  0  0  0  0  0  0  0
   -3.4837    0.7474    2.5030 N   0  0  0  0  0  0  0  0  0  0  0  0
   -2.3407    0.4073    1.8253 C   0  0  0  0  0  0  0  0  0  0  0  0
   -2.5105    0.7401    0.5024 C   0  0  0  0  0  0  0  0  0  0  0  0
   -1.5388    0.5257   -0.4491 N   0  0  0  0  0  0  0  0  0  0  0  0
   -1.6420    0.8372   -1.7904 C   0  0  0  0  0  0  0  0  0  0  0  0
   -2.5950    1.3501   -2.3662 O   0  0  0  0  0  0  0  0  0  0  0  0
   -0.4128    0.4806   -2.5644 C   0  0  0  0  0  0  0  0  0  0  0  0
   -0.3368    0.7392   -3.9121 C   0  0  0  0  0  0  0  0  0  0  0  0
    0.8433    0.3673   -4.5003 C   0  0  0  0  0  0  0  0  0  0  0  0
    1.8621   -0.2075   -3.8282 N   0  0  0  0  0  0  0  0  0  0  0  0
    1.6843   -0.4134   -2.5140 C   0  0  0  0  0  0  0  0  0  0  0  0
    2.7588   -1.0095   -1.8722 N   0  0  0  0  0  0  0  0  0  0  0  0
    2.8291   -1.2770   -0.5274 C   0  0  0  0  0  0  0  0  0  0  0  0
    1.9871   -1.0014    0.3198 O   0  0  0  0  0  0  0  0  0  0  0  0
    4.0865   -1.9406   -0.0816 C   0  0  0  0  0  0  0  0  0  0  0  0
    4.7661   -2.8623   -0.8916 C   0  0  0  0  0  0  0  0  0  0  0  0
    5.9396   -3.4642   -0.4313 C   0  0  0  0  0  0  0  0  0  0  0  0
    6.4315   -3.1544    0.8372 C   0  0  0  0  0  0  0  0  0  0  0  0
    5.7447   -2.2507    1.6472 C   0  0  0  0  0  0  0  0  0  0  0  0
    6.3518   -1.8806    3.2139 Cl  0  0  0  0  0  0  0  0  0  0  0  0
    4.5733   -1.6458    1.1981 C   0  0  0  0  0  0  0  0  0  0  0  0
    0.5786   -0.0945   -1.8486 N   0  0  0  0  0  0  0  0  0  0  0  0
   -3.8019    1.2996    0.3827 C   0  0  0  0  0  0  0  0  0  0  0  0
   -4.4054    1.3016    1.6354 C   0  0  0  0  0  0  0  0  0  0  0  0
   -5.7139    1.7704    2.0091 C   0  0  0  0  0  0  0  0  0  0  0  0
   -6.2263    1.7628    3.1185 O   0  0  0  0  0  0  0  0  0  0  0  0
   -6.3907    2.2613    0.9506 O   0  0  0  0  0  0  0  0  0  0  0  0
  1  2  1  0
  2  3  1  0
  3  4  2  0
  4  5  1  0
  5  6  1  0
  6  7  2  0
  6  8  1  0
  8  9  2  0
  9 10  1  0
 10 11  2  0
 11 12  1  0
 12 13  1  0
 13 14  1  0
 14 15  2  0
 14 16  1  0
 16 17  2  0
 17 18  1  0
 18 19  2  0
 19 20  1  0
 20 21  1  0
 20 22  2  0
 12 23  2  0
  4 24  1  0
 24 25  2  0
 25 26  1  0
 26 27  2  0
 26 28  1  0
 25  2  1  0
 23  8  1  0
 22 16  1  0
M  END
>  <energy>  (320) 
-101.43

>  <full_id>  (320) 
MOL00013790-001738-03_1

>  <mol_id>  (320) 
MOL00013790-001738-03

>  <act_mol>  (320) 
0

>  <act_conf>  (320) 
0

$$$$
MOL00013744-000458-03
     RDKit          3D

 25 26  0  0  0  0  0  0  0  0999 V2000
    2.3896   -3.5088    0.3977 C   0  0  0  0  0  0  0  0  0  0  0  0
    2.5050   -1.9919    0.5138 C   0  0  0  0  0  0  0  0  0  0  0  0
    1.7602   -1.2117   -0.5891 C   0  0  2  0  0  0  0  0  0  0  0  0
    0.3047   -1.4973   -0.4797 N   0  0  0  0  0  0  0  0  0  0  0  0
   -0.5931   -0.5460    0.0188 C   0  0  0  0  0  0  0  0  0  0  0  0
   -0.2231    0.3563    1.0232 C   0  0  0  0  0  0  0  0  0  0  0  0
   -1.1473    1.2595    1.5804 C   0  0  0  0  0  0  0  0  0  0  0  0
   -0.6313    2.1474    2.6383 C   0  0  0  0  0  0  0  0  0  0  0  0
    0.2823    2.9384    2.4640 O   0  0  0  0  0  0  0  0  0  0  0  0
   -1.2640    1.8716    3.8036 O   0  0  0  0  0  0  0  0  0  0  0  0
   -0.8348    2.6829    4.8945 C   0  0  0  0  0  0  0  0  0  0  0  0
   -2.4900    1.3040    1.1606 C   0  0  0  0  0  0  0  0  0  0  0  0
   -3.3881    2.2653    1.6615 N   0  0  0  0  0  0  0  0  0  0  0  0
   -3.1997    3.5817    1.0385 C   0  0  0  0  0  0  0  0  0  0  0  0
   -4.7878    1.8641    1.8069 C   0  0  0  0  0  0  0  0  0  0  0  0
   -2.8727    0.3613    0.1969 C   0  0  0  0  0  0  0  0  0  0  0  0
   -1.9544   -0.5585   -0.3523 C   0  0  0  0  0  0  0  0  0  0  0  0
   -2.4582   -1.4890   -1.3243 C   0  0  0  0  0  0  0  0  0  0  0  0
   -2.8876   -2.2214   -2.1163 N   0  0  0  0  0  0  0  0  0  0  0  0
    2.3489   -1.4946   -1.9622 C   0  0  0  0  0  0  0  0  0  0  0  0
    1.6185   -2.0219   -2.9595 N   0  0  0  0  0  0  0  0  0  0  0  0
    2.5205   -2.0788   -3.9508 N   0  0  0  0  0  0  0  0  0  0  0  0
    3.7340   -1.5966   -3.5498 C   0  0  0  0  0  0  0  0  0  0  0  0
    4.9081   -1.5349   -4.4437 C   0  0  0  0  0  0  0  0  0  0  0  0
    3.6511   -1.2144   -2.2942 N   0  0  0  0  0  0  0  0  0  0  0  0
  1  2  1  0
  3  2  1  1
  3  4  1  0
  4  5  1  0
  5  6  2  0
  6  7  1  0
  7  8  1  0
  8  9  2  0
  8 10  1  0
 10 11  1  0
  7 12  2  0
 12 13  1  0
 13 14  1  0
 13 15  1  0
 12 16  1  0
 16 17  2  0
 17 18  1  0
 18 19  3  0
  3 20  1  0
 20 21  2  0
 21 22  1  0
 22 23  1  0
 23 24  1  0
 23 25  2  0
 17  5  1  0
 25 20  1  0
M  END
>  <energy>  (321) 
117.19

>  <full_id>  (321) 
MOL00013744-000458-03_1

>  <mol_id>  (321) 
MOL00013744-000458-03

>  <act_mol>  (321) 
0

>  <act_conf>  (321) 
0

$$$$
MOL00013740-000626-03
     RDKit          3D

 26 27  0  0  0  0  0  0  0  0999 V2000
    6.8892   -0.3044    2.9840 C   0  0  0  0  0  0  0  0  0  0  0  0
    6.8180    0.5225    1.7127 C   0  0  0  0  0  0  0  0  0  0  0  0
    5.8135    0.0236    0.7910 N   0  0  0  0  0  0  0  0  0  0  0  0
    4.5421    0.4494    0.9240 N   0  0  0  0  0  0  0  0  0  0  0  0
    3.8809   -0.1635   -0.0587 C   0  0  0  0  0  0  0  0  0  0  0  0
    2.5355    0.0795   -0.1905 N   0  0  0  0  0  0  0  0  0  0  0  0
    1.7152   -0.4563   -1.1437 C   0  0  0  0  0  0  0  0  0  0  0  0
    2.0819   -1.2319   -2.0250 O   0  0  0  0  0  0  0  0  0  0  0  0
    0.2618   -0.0742   -1.0396 C   0  0  0  0  0  0  0  0  0  0  0  0
   -0.5829   -0.7476   -1.8470 C   0  0  0  0  0  0  0  0  0  0  0  0
   -2.0059   -0.5165   -1.8997 C   0  0  0  0  0  0  0  0  0  0  0  0
   -2.6240    0.1567   -0.9177 C   0  0  0  0  0  0  0  0  0  0  0  0
   -4.3167    0.5364   -1.0995 S   0  0  0  0  0  6  0  0  0  0  0  0
   -4.8705   -0.2608   -2.1804 O   0  0  0  0  0  0  0  0  0  0  0  0
   -4.4364    1.9823   -1.1310 O   0  0  0  0  0  0  0  0  0  0  0  0
   -5.0416   -0.0538    0.4242 C   0  0  0  0  0  0  0  0  0  0  0  0
   -6.5767   -0.0979    0.3986 C   0  0  0  0  0  0  0  0  0  0  0  0
   -7.2028    1.2971    0.3699 C   0  0  0  0  0  0  0  0  0  0  0  0
   -7.0856   -0.8607    1.6249 C   0  0  0  0  0  0  0  0  0  0  0  0
   -1.8792    0.7600    0.2237 C   0  0  1  0  0  0  0  0  0  0  0  0
   -1.9766   -0.0876    1.4257 N   0  0  0  0  0  0  0  0  0  0  0  0
   -0.3704    0.9426   -0.1228 C   0  0  0  0  0  0  0  0  0  0  0  0
    0.4346    2.2467    0.6024 S   0  0  0  0  0  0  0  0  0  0  0  0
    4.7338   -0.9953   -0.8116 C   0  0  0  0  0  0  0  0  0  0  0  0
    5.9838   -0.8597   -0.2431 C   0  0  0  0  0  0  0  0  0  0  0  0
    7.2784   -1.4849   -0.6018 C   0  0  0  0  0  0  0  0  0  0  0  0
  1  2  1  0
  2  3  1  0
  3  4  1  0
  4  5  2  0
  5  6  1  0
  6  7  1  0
  7  8  2  0
  7  9  1  0
  9 10  2  0
 10 11  1  0
 11 12  2  0
 12 13  1  0
 13 14  2  0
 13 15  2  0
 13 16  1  0
 16 17  1  0
 17 18  1  0
 17 19  1  0
 12 20  1  0
 20 21  1  1
 20 22  1  0
 22 23  2  0
  5 24  1  0
 24 25  2  0
 25 26  1  0
 25  3  1  0
 22  9  1  0
M  END
>  <energy>  (322) 
-15.16

>  <full_id>  (322) 
MOL00013740-000626-03_1

>  <mol_id>  (322) 
MOL00013740-000626-03

>  <act_mol>  (322) 
0

>  <act_conf>  (322) 
0

$$$$
MOL00013320-000094-04
     RDKit          3D

 35 39  0  0  0  0  0  0  0  0999 V2000
   -6.1687   -2.0276    2.5850 C   0  0  0  0  0  0  0  0  0  0  0  0
   -6.2938   -0.5713    2.1514 C   0  0  1  0  0  0  0  0  0  0  0  0
   -6.4844    0.3588    3.3536 C   0  0  0  0  0  0  0  0  0  0  0  0
   -5.6947    1.6183    3.0213 C   0  0  0  0  0  0  0  0  0  0  0  0
   -5.1979    1.4081    1.6018 C   0  0  0  0  0  0  0  0  0  0  0  0
   -5.0782   -0.0514    1.5071 N   0  0  0  0  0  0  0  0  0  0  0  0
   -4.9291   -0.5056    0.1177 C   0  0  0  0  0  0  0  0  0  0  0  0
   -3.6187   -0.0806   -0.5118 C   0  0  0  0  0  0  0  0  0  0  0  0
   -2.3976   -0.4307    0.0766 C   0  0  0  0  0  0  0  0  0  0  0  0
   -1.1827   -0.0563   -0.5108 C   0  0  0  0  0  0  0  0  0  0  0  0
   -1.1520    0.6665   -1.7079 C   0  0  0  0  0  0  0  0  0  0  0  0
    0.0293    1.0877   -2.3407 N   0  0  0  0  0  0  0  0  0  0  0  0
    1.3412    0.9406   -1.9531 C   0  0  0  0  0  0  0  0  0  0  0  0
    2.4621    1.2609   -2.6356 C   0  0  0  0  0  0  0  0  0  0  0  0
    2.2897    1.8227   -4.0176 C   0  0  0  0  0  0  0  0  0  0  0  0
    1.1982    2.0856   -4.5182 O   0  0  0  0  0  0  0  0  0  0  0  0
    3.4434    2.0208   -4.7264 N   0  0  0  0  0  0  0  0  0  0  0  0
    4.7301    1.7558   -4.3365 C   0  0  0  0  0  0  0  0  0  0  0  0
    5.6729    1.9159   -5.1038 O   0  0  0  0  0  0  0  0  0  0  0  0
    4.9311    1.2742   -2.9521 C   0  0  0  0  0  0  0  0  0  0  0  0
    6.2463    1.0662   -2.5073 C   0  0  0  0  0  0  0  0  0  0  0  0
    6.4897    0.6299   -1.2072 C   0  0  0  0  0  0  0  0  0  0  0  0
    5.4208    0.4030   -0.3381 C   0  0  0  0  0  0  0  0  0  0  0  0
    5.6646   -0.0715    1.0793 C   0  0  0  0  0  0  0  0  0  0  0  0
    5.0837   -1.4337    1.3622 C   0  0  0  0  0  0  0  0  0  0  0  0
    5.6828   -2.5939    0.8838 C   0  0  0  0  0  0  0  0  0  0  0  0
    5.0782   -3.8182    1.1489 C   0  0  0  0  0  0  0  0  0  0  0  0
    3.9052   -3.8152    1.8748 C   0  0  0  0  0  0  0  0  0  0  0  0
    3.0806   -5.2664    2.2528 Cl  0  0  0  0  0  0  0  0  0  0  0  0
    3.3330   -2.6843    2.3297 N   0  0  0  0  0  0  0  0  0  0  0  0
    3.9294   -1.4804    2.0690 N   0  0  0  0  0  0  0  0  0  0  0  0
    4.1056    0.6249   -0.7939 C   0  0  0  0  0  0  0  0  0  0  0  0
    3.8336    1.0466   -2.1092 C   0  0  0  0  0  0  0  0  0  0  0  0
   -2.3808    1.0164   -2.2889 C   0  0  0  0  0  0  0  0  0  0  0  0
   -3.5981    0.6471   -1.7053 C   0  0  0  0  0  0  0  0  0  0  0  0
  2  1  1  1
  2  3  1  0
  3  4  1  0
  4  5  1  0
  5  6  1  0
  6  7  1  0
  7  8  1  0
  8  9  2  0
  9 10  1  0
 10 11  2  0
 11 12  1  0
 12 13  1  0
 13 14  2  0
 14 15  1  0
 15 16  2  0
 15 17  1  0
 17 18  1  0
 18 19  2  0
 18 20  1  0
 20 21  2  0
 21 22  1  0
 22 23  2  0
 23 24  1  0
 24 25  1  0
 25 26  2  0
 26 27  1  0
 27 28  2  0
 28 29  1  0
 28 30  1  0
 30 31  2  0
 23 32  1  0
 32 33  2  0
 11 34  1  0
 34 35  2  0
  6  2  1  0
 35  8  1  0
 33 14  1  0
 33 20  1  0
 31 25  1  0
M  END
>  <energy>  (323) 
67.83

>  <full_id>  (323) 
MOL00013320-000094-04_1

>  <mol_id>  (323) 
MOL00013320-000094-04

>  <act_mol>  (323) 
0

>  <act_conf>  (323) 
0

$$$$
MOL00013765-000013-03
     RDKit          3D

 28 30  0  0  0  0  0  0  0  0999 V2000
   -6.6182   -3.4826    0.6889 C   0  0  0  0  0  0  0  0  0  0  0  0
   -6.0743   -2.3511    1.5635 C   0  0  2  0  0  0  0  0  0  0  0  0
   -7.1782   -1.5010    2.0141 N   0  0  0  0  0  0  0  0  0  0  0  0
   -5.0087   -1.5182    0.8774 C   0  0  0  0  0  0  0  0  0  0  0  0
   -3.8326   -1.1907    1.5644 C   0  0  0  0  0  0  0  0  0  0  0  0
   -2.8393   -0.4047    0.9642 C   0  0  0  0  0  0  0  0  0  0  0  0
   -2.9769    0.0603   -0.3462 C   0  0  0  0  0  0  0  0  0  0  0  0
   -2.0547    0.9052   -0.9777 N   0  0  0  0  0  0  0  0  0  0  0  0
   -0.6696    0.9420   -0.4958 C   0  0  0  0  0  0  0  0  0  0  0  0
    0.1814    1.8753   -1.3619 C   0  0  2  0  0  0  0  0  0  0  0  0
    0.2941    1.2954   -3.0965 S   0  0  0  0  0  0  0  0  0  0  0  0
    1.9937    0.8764   -2.9622 C   0  0  0  0  0  0  0  0  0  0  0  0
    2.8517    0.1594   -4.1998 S   0  0  0  0  0  0  0  0  0  0  0  0
    2.4597    1.2727   -1.7292 N   0  0  0  0  0  0  0  0  0  0  0  0
    3.7684    0.9847   -1.2989 N   0  0  0  0  0  0  0  0  0  0  0  0
    3.9148   -0.1643   -0.5379 C   0  0  0  0  0  0  0  0  0  0  0  0
    3.0147   -0.9842   -0.3797 O   0  0  0  0  0  0  0  0  0  0  0  0
    5.2295   -0.3394    0.1360 C   0  0  0  0  0  0  0  0  0  0  0  0
    5.2815   -1.1137    1.3038 C   0  0  0  0  0  0  0  0  0  0  0  0
    6.4943   -1.3028    1.9709 C   0  0  0  0  0  0  0  0  0  0  0  0
    7.6510   -0.7234    1.4597 C   0  0  0  0  0  0  0  0  0  0  0  0
    8.8564   -0.8811    2.0750 O   0  0  0  0  0  0  0  0  0  0  0  0
    7.6165    0.0339    0.2935 C   0  0  0  0  0  0  0  0  0  0  0  0
    6.4056    0.2258   -0.3756 C   0  0  0  0  0  0  0  0  0  0  0  0
    1.5946    1.8782   -0.8352 C   0  0  0  0  0  0  0  0  0  0  0  0
    1.9216    2.3530    0.2492 O   0  0  0  0  0  0  0  0  0  0  0  0
   -4.1778   -0.2254   -1.0090 C   0  0  0  0  0  0  0  0  0  0  0  0
   -5.1751   -1.0088   -0.4156 C   0  0  0  0  0  0  0  0  0  0  0  0
  2  1  1  6
  2  3  1  0
  2  4  1  0
  4  5  2  0
  5  6  1  0
  6  7  2  0
  7  8  1  0
  8  9  1  0
 10  9  1  1
 10 11  1  0
 11 12  1  0
 12 13  2  0
 12 14  1  0
 14 15  1  0
 15 16  1  0
 16 17  2  0
 16 18  1  0
 18 19  2  0
 19 20  1  0
 20 21  2  0
 21 22  1  0
 21 23  1  0
 23 24  2  0
 14 25  1  0
 25 26  2  0
  7 27  1  0
 27 28  2  0
 28  4  1  0
 25 10  1  0
 24 18  1  0
M  END
>  <energy>  (324) 
45.74

>  <full_id>  (324) 
MOL00013765-000013-03_1

>  <mol_id>  (324) 
MOL00013765-000013-03

>  <act_mol>  (324) 
0

>  <act_conf>  (324) 
0

$$$$
MOL00013718-000601-02
     RDKit          3D

 35 38  0  0  0  0  0  0  0  0999 V2000
   -3.4127   -1.1698   -2.9167 C   0  0  0  0  0  0  0  0  0  0  0  0
   -2.5691   -1.4970   -1.6934 C   0  0  0  0  0  0  0  0  0  0  0  0
   -3.4003   -2.0667   -0.5982 C   0  0  0  0  0  0  0  0  0  0  0  0
   -3.5960   -3.3571   -0.3992 N   0  0  0  0  0  0  0  0  0  0  0  0
   -4.5654   -3.4592    0.5561 N   0  0  0  0  0  0  0  0  0  0  0  0
   -4.9795   -2.2646    0.9426 N   0  0  0  0  0  0  0  0  0  0  0  0
   -4.2273   -1.3626    0.2693 N   0  0  0  0  0  0  0  0  0  0  0  0
   -4.3285    0.0242    0.5277 C   0  0  0  0  0  0  0  0  0  0  0  0
   -3.1468    0.7882    0.6017 C   0  0  0  0  0  0  0  0  0  0  0  0
   -3.1676    2.1626    0.8657 C   0  0  0  0  0  0  0  0  0  0  0  0
   -2.0203    2.9561    0.9629 N   0  0  0  0  0  0  0  0  0  0  0  0
   -0.6546    2.6957    0.9107 C   0  0  0  0  0  0  0  0  0  0  0  0
    0.1310    3.7798    0.9871 N   0  0  0  0  0  0  0  0  0  0  0  0
    1.4630    3.5800    0.9583 C   0  0  0  0  0  0  0  0  0  0  0  0
    2.0442    2.3385    0.8624 C   0  0  0  0  0  0  0  0  0  0  0  0
    3.4603    2.2076    0.8456 C   0  0  0  0  0  0  0  0  0  0  0  0
    4.6123    2.0738    0.8350 N   0  0  0  0  0  0  0  0  0  0  0  0
    1.1694    1.2708    0.7911 C   0  0  0  0  0  0  0  0  0  0  0  0
    1.6795   -0.0404    0.7096 N   0  0  0  0  0  0  0  0  0  0  0  0
    0.9342   -1.1991    0.5829 C   0  0  0  0  0  0  0  0  0  0  0  0
   -0.2879   -1.2870    0.5312 O   0  0  0  0  0  0  0  0  0  0  0  0
    1.8124   -2.4563    0.5376 C   0  0  0  0  0  0  0  0  0  0  0  0
    3.1470   -2.2146    0.1042 O   0  0  0  0  0  0  0  0  0  0  0  0
    3.3618   -2.0043   -1.2313 C   0  0  0  0  0  0  0  0  0  0  0  0
    2.4041   -2.0694   -2.2428 C   0  0  0  0  0  0  0  0  0  0  0  0
    2.7644   -1.8027   -3.5688 C   0  0  0  0  0  0  0  0  0  0  0  0
    4.0845   -1.4783   -3.9004 C   0  0  0  0  0  0  0  0  0  0  0  0
    4.4576   -1.1628   -5.3184 C   0  0  0  0  0  0  0  0  0  0  0  0
    5.0377   -1.4021   -2.8812 C   0  0  0  0  0  0  0  0  0  0  0  0
    4.6777   -1.6700   -1.5586 C   0  0  0  0  0  0  0  0  0  0  0  0
   -0.1646    1.4536    0.8083 N   0  0  0  0  0  0  0  0  0  0  0  0
   -4.4153    2.7609    1.0832 C   0  0  0  0  0  0  0  0  0  0  0  0
   -5.5963    2.0148    1.0330 C   0  0  0  0  0  0  0  0  0  0  0  0
   -5.5620    0.6453    0.7578 C   0  0  0  0  0  0  0  0  0  0  0  0
   -7.0953   -0.1380    0.6031 Cl  0  0  0  0  0  0  0  0  0  0  0  0
  1  2  1  0
  2  3  1  0
  3  4  2  0
  4  5  1  0
  5  6  2  0
  6  7  1  0
  7  8  1  0
  8  9  2  0
  9 10  1  0
 10 11  1  0
 11 12  1  0
 12 13  2  0
 13 14  1  0
 14 15  2  0
 15 16  1  0
 16 17  3  0
 15 18  1  0
 18 19  1  0
 19 20  1  0
 20 21  2  0
 20 22  1  0
 22 23  1  0
 23 24  1  0
 24 25  2  0
 25 26  1  0
 26 27  2  0
 27 28  1  0
 27 29  1  0
 29 30  2  0
 18 31  2  0
 10 32  2  0
 32 33  1  0
 33 34  2  0
 34 35  1  0
  7  3  1  0
 34  8  1  0
 31 12  1  0
 30 24  1  0
M  END
>  <energy>  (325) 
-21.89

>  <full_id>  (325) 
MOL00013718-000601-02_1

>  <mol_id>  (325) 
MOL00013718-000601-02

>  <act_mol>  (325) 
0

>  <act_conf>  (325) 
0

$$$$
MOL00013907-000085-04
     RDKit          3D

 24 25  0  0  0  0  0  0  0  0999 V2000
    0.1778    0.8929    1.7026 C   0  0  0  0  0  0  0  0  0  0  0  0
   -1.0359    0.9706    0.7594 C   0  0  0  0  0  0  0  0  0  0  0  0
   -0.6565    1.9344   -0.3929 C   0  0  0  0  0  0  0  0  0  0  0  0
   -1.4331   -0.4346    0.2253 C   0  0  2  0  0  0  0  0  0  0  0  0
   -0.5040   -0.9920   -0.8411 C   0  0  0  0  0  0  0  0  0  0  0  0
   -0.6206   -0.7590   -2.0361 O   0  0  0  0  0  0  0  0  0  0  0  0
    0.5457   -1.7671   -0.3222 N   0  0  0  0  0  0  0  0  0  0  0  0
    1.8493   -2.3147   -1.1836 S   0  0  0  0  0  6  0  0  0  0  0  0
    1.4058   -3.0828   -2.3258 O   0  0  0  0  0  0  0  0  0  0  0  0
    2.7553   -2.8991   -0.2142 O   0  0  0  0  0  0  0  0  0  0  0  0
    2.6019   -0.8102   -1.7552 C   0  0  0  0  0  0  0  0  0  0  0  0
    2.3535   -0.3545   -3.0502 C   0  0  0  0  0  0  0  0  0  0  0  0
    2.9531    0.8284   -3.4902 C   0  0  0  0  0  0  0  0  0  0  0  0
    3.7717    1.5755   -2.6370 C   0  0  0  0  0  0  0  0  0  0  0  0
    4.4504    2.7024   -3.1205 N   0  0  0  0  0  0  0  0  0  0  0  0
    4.0734    1.0634   -1.3709 C   0  0  0  0  0  0  0  0  0  0  0  0
    3.4799   -0.1179   -0.9184 C   0  0  0  0  0  0  0  0  0  0  0  0
   -2.8805   -0.2782   -0.2531 C   0  0  0  0  0  0  0  0  0  0  0  0
   -3.4595    0.9215    0.5072 C   0  0  0  0  0  0  0  0  0  0  0  0
   -2.3590    1.4107    1.4750 C   0  0  2  0  0  0  0  0  0  0  0  0
   -2.4995    2.9210    1.7110 C   0  0  0  0  0  0  0  0  0  0  0  0
   -2.5132    0.7015    2.8682 C   0  0  0  0  0  0  0  0  0  0  0  0
   -2.0981    1.3551    3.8665 O   0  0  0  0  0  0  0  0  0  0  0  0
   -2.9818   -0.4721    2.8390 O   0  0  0  0  0  1  0  0  0  0  0  0
  2  1  1  0
  2  3  1  0
  2  4  1  0
  4  5  1  6
  5  6  2  0
  5  7  1  0
  8  7  1  0
  8  9  2  0
  8 10  2  0
  8 11  1  0
 11 12  2  0
 12 13  1  0
 13 14  2  0
 14 15  1  0
 14 16  1  0
 16 17  2  0
  4 18  1  0
 18 19  1  0
 19 20  1  0
 20 21  1  1
 20 22  1  0
 22 23  2  0
 22 24  1  0
 20  2  1  0
 17 11  1  0
M  CHG  1  24  -1
M  END
>  <energy>  (326) 
-63.63

>  <full_id>  (326) 
MOL00013907-000085-04_1

>  <mol_id>  (326) 
MOL00013907-000085-04

>  <act_mol>  (326) 
0

>  <act_conf>  (326) 
0

$$$$
MOL00014115-001541-03
     RDKit          3D

 20 21  0  0  0  0  0  0  0  0999 V2000
   -4.7310   -0.5004    1.0320 C   0  0  0  0  0  0  0  0  0  0  0  0
   -3.4271    0.0368    0.5142 C   0  0  0  0  0  0  0  0  0  0  0  0
   -3.4342    1.2201   -0.2285 C   0  0  0  0  0  0  0  0  0  0  0  0
   -2.2330    1.7244   -0.6901 C   0  0  0  0  0  0  0  0  0  0  0  0
   -1.0354    1.1365   -0.4752 N   0  0  0  0  0  0  0  0  0  0  0  0
   -1.0027   -0.0135    0.2481 C   0  0  0  0  0  0  0  0  0  0  0  0
    0.2487   -0.6656    0.4494 N   0  0  0  0  0  0  0  0  0  0  0  0
    1.5138   -0.1366    0.0960 C   0  0  0  0  0  0  0  0  0  0  0  0
    2.3877    0.2534    1.1237 C   0  0  0  0  0  0  0  0  0  0  0  0
    3.6235    0.8411    0.8380 C   0  0  0  0  0  0  0  0  0  0  0  0
    3.9946    1.1048   -0.4774 C   0  0  0  0  0  0  0  0  0  0  0  0
    5.2727    1.5960   -0.7681 N   0  0  0  0  0  0  0  0  0  0  0  0
    3.1583    0.6644   -1.5044 C   0  0  0  0  0  0  0  0  0  0  0  0
    1.9157    0.0528   -1.2381 C   0  0  0  0  0  0  0  0  0  0  0  0
    1.0749   -0.3798   -2.4100 C   0  0  0  0  0  0  0  0  0  0  0  0
    0.3273    0.7239   -2.9021 O   0  0  0  0  0  0  0  0  0  0  0  0
   -2.1888   -0.6016    0.7325 C   0  0  0  0  0  0  0  0  0  0  0  0
   -2.0705   -1.8468    1.5156 C   0  0  0  0  0  0  0  0  0  0  0  0
   -1.1982   -2.0756    2.3356 O   0  0  0  0  0  0  0  0  0  0  0  0
   -3.0003   -2.7612    1.1947 O   0  0  0  0  0  0  0  0  0  0  0  0
  1  2  1  0
  2  3  2  0
  3  4  1  0
  4  5  2  0
  5  6  1  0
  6  7  1  0
  7  8  1  0
  8  9  2  0
  9 10  1  0
 10 11  2  0
 11 12  1  0
 11 13  1  0
 13 14  2  0
 14 15  1  0
 15 16  1  0
  6 17  2  0
 17 18  1  0
 18 19  2  0
 18 20  1  0
 17  2  1  0
 14  8  1  0
M  END
>  <energy>  (327) 
8.31

>  <full_id>  (327) 
MOL00014115-001541-03_1

>  <mol_id>  (327) 
MOL00014115-001541-03

>  <act_mol>  (327) 
0

>  <act_conf>  (327) 
0

$$$$
MOL00013216-000351-02
     RDKit          3D

 32 35  0  0  0  0  0  0  0  0999 V2000
    6.4051    1.6681   -2.1342 C   0  0  0  0  0  0  0  0  0  0  0  0
    6.8702    1.8787   -0.8091 O   0  0  0  0  0  0  0  0  0  0  0  0
    6.6009    0.7535    0.0476 C   0  0  1  0  0  0  0  0  0  0  0  0
    7.7331    0.5557    0.9267 O   0  0  0  0  0  0  0  0  0  0  0  0
    7.9156    1.6840    1.7880 C   0  0  0  0  0  0  0  0  0  0  0  0
    6.6497    1.9994    2.5979 C   0  0  0  0  0  0  0  0  0  0  0  0
    5.4515    2.1830    1.7599 N   0  0  0  0  0  0  0  0  0  0  0  0
    5.2786    0.9734    0.9128 C   0  0  1  0  0  0  0  0  0  0  0  0
    4.0824    1.0201    0.0889 N   0  0  0  0  0  0  0  0  0  0  0  0
    3.5358   -0.2245   -0.1969 C   0  0  0  0  0  0  0  0  0  0  0  0
    4.3320   -1.2448   -0.5381 N   0  0  0  0  0  0  0  0  0  0  0  0
    3.7063   -2.3813   -0.8099 C   0  0  0  0  0  0  0  0  0  0  0  0
    2.3463   -2.5624   -0.7178 C   0  0  0  0  0  0  0  0  0  0  0  0
    1.6018   -1.4757   -0.3638 C   0  0  0  0  0  0  0  0  0  0  0  0
    0.2104   -1.6142   -0.2768 N   0  0  0  0  0  0  0  0  0  0  0  0
   -0.6596   -0.6587    0.1939 C   0  0  0  0  0  0  0  0  0  0  0  0
   -0.3772    0.4230    0.6875 O   0  0  0  0  0  0  0  0  0  0  0  0
   -1.9693   -1.0979    0.0663 N   0  0  0  0  0  0  0  0  0  0  0  0
   -3.0758   -0.2154    0.4304 C   0  0  0  0  0  0  0  0  0  0  0  0
   -3.3614    0.7992   -0.6787 C   0  0  0  0  0  0  0  0  0  0  0  0
   -4.5852    1.6499   -0.3450 C   0  0  0  0  0  0  0  0  0  0  0  0
   -5.7691    0.8122   -0.0889 N   0  0  0  0  0  0  0  0  0  0  0  0
   -6.9621    1.6324    0.2053 C   0  0  0  0  0  0  0  0  0  0  0  0
   -7.5018    2.4375   -0.9988 C   0  0  0  0  0  0  0  0  0  0  0  0
   -8.7311    3.2455   -0.5724 C   0  0  0  0  0  0  0  0  0  0  0  0
   -7.8590    1.5312   -2.1791 C   0  0  0  0  0  0  0  0  0  0  0  0
   -5.5161   -0.1159    1.0259 C   0  0  0  0  0  0  0  0  0  0  0  0
   -4.3315   -1.0317    0.7284 C   0  0  0  0  0  0  0  0  0  0  0  0
    2.1984   -0.3021   -0.1125 N   0  0  0  0  0  0  0  0  0  0  0  0
    2.0110   -3.9747   -1.0275 C   0  0  0  0  0  0  0  0  0  0  0  0
    3.4127   -4.6101   -0.9111 C   0  0  0  0  0  0  0  0  0  0  0  0
    4.3712   -3.5597   -1.2421 N   0  0  0  0  0  0  0  0  0  0  0  0
  1  2  1  0
  3  2  1  1
  3  4  1  0
  4  5  1  0
  5  6  1  0
  6  7  1  0
  7  8  1  0
  8  9  1  6
  9 10  1  0
 10 11  2  0
 11 12  1  0
 12 13  2  0
 13 14  1  0
 14 15  1  0
 15 16  1  0
 16 17  2  0
 16 18  1  0
 19 18  1  0
 19 20  1  0
 20 21  1  0
 21 22  1  0
 22 23  1  0
 23 24  1  0
 24 25  1  0
 24 26  1  0
 22 27  1  0
 27 28  1  0
 14 29  2  0
 13 30  1  0
 30 31  1  0
 31 32  1  0
  8  3  1  0
 29 10  1  0
 32 12  1  0
 28 19  1  0
M  END
>  <energy>  (328) 
-166.79

>  <full_id>  (328) 
MOL00013216-000351-02_1

>  <mol_id>  (328) 
MOL00013216-000351-02

>  <act_mol>  (328) 
0

>  <act_conf>  (328) 
0

$$$$
MOL00013780-000642-03
     RDKit          3D

 36 40  0  0  0  0  0  0  0  0999 V2000
   -3.8164   -0.5980    1.9363 C   0  0  0  0  0  0  0  0  0  0  0  0
   -3.1694   -0.3869    0.6758 O   0  0  0  0  0  0  0  0  0  0  0  0
   -3.3145   -1.4741   -0.1450 C   0  0  0  0  0  0  0  0  0  0  0  0
   -4.6115   -1.8016   -0.5762 C   0  0  0  0  0  0  0  0  0  0  0  0
   -4.8356   -2.9338   -1.3504 C   0  0  0  0  0  0  0  0  0  0  0  0
   -3.7618   -3.7360   -1.7051 C   0  0  0  0  0  0  0  0  0  0  0  0
   -2.4652   -3.3887   -1.3079 C   0  0  0  0  0  0  0  0  0  0  0  0
   -2.1993   -2.2382   -0.5380 C   0  0  0  0  0  0  0  0  0  0  0  0
   -0.8321   -1.9008   -0.2418 N   0  0  0  0  0  0  0  0  0  0  0  0
    0.1631   -2.8606   -0.1544 C   0  0  0  0  0  0  0  0  0  0  0  0
    0.0972   -4.0754   -0.1564 O   0  0  0  0  0  0  0  0  0  0  0  0
    1.4882   -2.1391   -0.0701 C   0  0  0  0  0  0  0  0  0  0  0  0
    2.5625   -2.7018   -0.0262 O   0  0  0  0  0  0  0  0  0  0  0  0
    1.2161   -0.6880   -0.0798 C   0  0  0  0  0  0  0  0  0  0  0  0
    2.1894    0.2416   -0.0407 C   0  0  0  0  0  0  0  0  0  0  0  0
    1.8900    1.5861    0.0259 O   0  0  0  0  0  0  0  0  0  0  0  0
    3.6312   -0.0419   -0.0400 C   0  0  0  0  0  0  0  0  0  0  0  0
    4.3170   -0.1998    1.1704 C   0  0  0  0  0  0  0  0  0  0  0  0
    5.6909   -0.4567    1.1709 C   0  0  0  0  0  0  0  0  0  0  0  0
    6.3877   -0.5521   -0.0385 C   0  0  0  0  0  0  0  0  0  0  0  0
    7.7973   -0.8148   -0.0383 C   0  0  0  0  0  0  0  0  0  0  0  0
    8.9411   -1.0120   -0.0392 N   0  0  0  0  0  0  0  0  0  0  0  0
    5.7051   -0.3855   -1.2484 C   0  0  0  0  0  0  0  0  0  0  0  0
    4.3311   -0.1292   -1.2494 C   0  0  0  0  0  0  0  0  0  0  0  0
   -0.3099   -0.5262   -0.0626 C   0  0  1  0  0  0  0  0  0  0  0  0
   -0.8094    0.5205   -1.4747 S   0  0  0  0  0  0  0  0  0  0  0  0
   -1.1311    2.0874   -0.7069 C   0  0  0  0  0  0  0  0  0  0  0  0
   -1.4206    3.1606   -1.5670 C   0  0  0  0  0  0  0  0  0  0  0  0
   -1.6979    4.4337   -1.0648 C   0  0  0  0  0  0  0  0  0  0  0  0
   -1.6884    4.6341    0.3072 C   0  0  0  0  0  0  0  0  0  0  0  0
   -1.9529    5.8553    0.8506 O   0  0  0  0  0  0  0  0  0  0  0  0
   -1.4082    3.5859    1.1762 C   0  0  0  0  0  0  0  0  0  0  0  0
   -1.1280    2.3089    0.6731 C   0  0  0  0  0  0  0  0  0  0  0  0
   -0.8684    1.3037    1.6096 N   0  0  0  0  0  0  0  0  0  0  0  0
   -0.5724   -0.0056    1.3661 C   0  0  0  0  0  0  0  0  0  0  0  0
   -0.4404   -0.7441    2.3541 O   0  0  0  0  0  0  0  0  0  0  0  0
  1  2  1  0
  2  3  1  0
  3  4  2  0
  4  5  1  0
  5  6  2  0
  6  7  1  0
  7  8  2  0
  8  9  1  0
  9 10  1  0
 10 11  2  0
 10 12  1  0
 12 13  2  0
 12 14  1  0
 14 15  2  0
 15 16  1  0
 15 17  1  0
 17 18  2  0
 18 19  1  0
 19 20  2  0
 20 21  1  0
 21 22  3  0
 20 23  1  0
 23 24  2  0
 14 25  1  0
 25 26  1  6
 26 27  1  0
 27 28  2  0
 28 29  1  0
 29 30  2  0
 30 31  1  0
 30 32  1  0
 32 33  2  0
 33 34  1  0
 34 35  1  0
 35 36  2  0
  8  3  1  0
 25  9  1  0
 33 27  1  0
 24 17  1  0
 35 25  1  0
M  END
>  <energy>  (329) 
134.46

>  <full_id>  (329) 
MOL00013780-000642-03_1

>  <mol_id>  (329) 
MOL00013780-000642-03

>  <act_mol>  (329) 
0

>  <act_conf>  (329) 
0

$$$$
MOL00014216-000543-03
     RDKit          3D

 19 19  0  0  0  0  0  0  0  0999 V2000
   -4.0494   -2.2082    1.7515 O   0  0  0  0  0  0  0  0  0  0  0  0
   -4.1748   -1.1320    2.3148 C   0  0  0  0  0  0  0  0  0  0  0  0
   -4.5548   -1.0757    3.6081 O   0  0  0  0  0  0  0  0  0  0  0  0
   -3.9751    0.2455    1.7074 C   0  0  0  0  0  0  0  0  0  0  0  0
   -3.4930    0.1796    0.3629 O   0  0  0  0  0  0  0  0  0  0  0  0
   -2.1789   -0.1680    0.2605 C   0  0  0  0  0  0  0  0  0  0  0  0
   -1.4280   -0.3617    1.2097 O   0  0  0  0  0  0  0  0  0  0  0  0
   -1.7933   -0.3429   -1.2023 C   0  0  0  0  0  0  0  0  0  0  0  0
   -0.3470   -0.3206   -1.3536 N   0  0  0  0  0  0  0  0  0  0  0  0
    0.3137    0.8752   -1.5060 C   0  0  0  0  0  0  0  0  0  0  0  0
   -0.2751    1.9373   -1.6812 O   0  0  0  0  0  0  0  0  0  0  0  0
    1.7567    0.8030   -1.4261 C   0  0  0  0  0  0  0  0  0  0  0  0
    2.6351   -0.2642   -1.3066 C   0  0  0  0  0  0  0  0  0  0  0  0
    3.9607    0.2553   -1.2777 C   0  0  0  0  0  0  0  0  0  0  0  0
    5.1879   -0.4932   -1.1635 N   0  0  0  0  0  4  0  0  0  0  0  0
    6.2461    0.1486   -1.1574 O   0  0  0  0  0  0  0  0  0  0  0  0
    5.0818   -1.7238   -1.0813 O   0  0  0  0  0  1  0  0  0  0  0  0
    3.8603    1.6288   -1.3840 C   0  0  0  0  0  0  0  0  0  0  0  0
    2.5315    1.9457   -1.4773 N   0  0  0  0  0  0  0  0  0  0  0  0
  1  2  2  0
  2  3  1  0
  2  4  1  0
  4  5  1  0
  5  6  1  0
  6  7  2  0
  6  8  1  0
  8  9  1  0
  9 10  1  0
 10 11  2  0
 10 12  1  0
 12 13  2  0
 13 14  1  0
 14 15  1  0
 15 16  2  0
 15 17  1  0
 14 18  2  0
 18 19  1  0
 19 12  1  0
M  CHG  2  15   1  17  -1
M  END
>  <energy>  (330) 
12.88

>  <full_id>  (330) 
MOL00014216-000543-03_1

>  <mol_id>  (330) 
MOL00014216-000543-03

>  <act_mol>  (330) 
0

>  <act_conf>  (330) 
0

$$$$
MOL00014166-001875-02
     RDKit          3D

 28 29  0  0  0  0  0  0  0  0999 V2000
    1.7234    3.1965   -0.4535 N   0  0  0  0  0  0  0  0  0  0  0  0
    1.1963    1.9360   -0.7756 C   0  0  0  0  0  0  0  0  0  0  0  0
   -0.0616    1.8733   -1.3807 C   0  0  0  0  0  0  0  0  0  0  0  0
   -0.6802    0.6368   -1.5694 C   0  0  0  0  0  0  0  0  0  0  0  0
   -2.2514    0.5155   -2.3559 S   0  0  0  0  0  6  0  0  0  0  0  0
   -2.2700   -0.7488   -3.0677 O   0  0  0  0  0  0  0  0  0  0  0  0
   -2.4807    1.7599   -3.0658 O   0  0  0  0  0  0  0  0  0  0  0  0
   -3.4560    0.4231   -1.0525 C   0  0  0  0  0  0  0  0  0  0  0  0
   -3.8814    1.5983   -0.4285 C   0  0  0  0  0  0  0  0  0  0  0  0
   -4.8326    1.5277    0.5924 C   0  0  0  0  0  0  0  0  0  0  0  0
   -5.3578    0.2924    0.9934 C   0  0  0  0  0  0  0  0  0  0  0  0
   -6.5886    0.2657    2.2833 S   0  0  0  0  0  0  0  0  0  0  0  0
   -5.8271   -0.8866    3.4458 C   0  0  0  0  0  0  0  0  0  0  0  0
   -5.8172   -2.1462    2.9425 F   0  0  0  0  0  0  0  0  0  0  0  0
   -4.5368   -0.5485    3.6911 F   0  0  0  0  0  0  0  0  0  0  0  0
   -4.9438   -0.8730    0.3366 C   0  0  0  0  0  0  0  0  0  0  0  0
   -3.9931   -0.8127   -0.6862 C   0  0  0  0  0  0  0  0  0  0  0  0
   -0.0440   -0.5164   -1.1517 C   0  0  0  0  0  0  0  0  0  0  0  0
    1.1512   -0.5070   -0.5203 N   0  0  0  0  0  0  0  0  0  0  0  0
    1.7392    0.7158   -0.3306 C   0  0  0  0  0  0  0  0  0  0  0  0
    3.0730    0.6674    0.3602 C   0  0  0  0  0  0  0  0  0  0  0  0
    3.8124    1.6453    0.4620 O   0  0  0  0  0  0  0  0  0  0  0  0
    3.4165   -0.5830    0.8449 N   0  0  0  0  0  0  0  0  0  0  0  0
    4.7478   -0.7898    1.2409 N   0  0  0  0  0  0  0  0  0  0  0  0
    5.3625   -1.9466    0.8036 C   0  0  0  0  0  0  0  0  0  0  0  0
    4.7648   -2.8807    0.2681 O   0  0  0  0  0  0  0  0  0  0  0  0
    6.8647   -1.9934    1.0710 C   0  0  0  0  0  0  0  0  0  0  0  0
    7.5026   -3.0496    0.3696 O   0  0  0  0  0  0  0  0  0  0  0  0
  1  2  1  0
  2  3  2  0
  3  4  1  0
  5  4  1  0
  5  6  2  0
  5  7  2  0
  5  8  1  0
  8  9  2  0
  9 10  1  0
 10 11  2  0
 11 12  1  0
 12 13  1  0
 13 14  1  0
 13 15  1  0
 11 16  1  0
 16 17  2  0
  4 18  2  0
 18 19  1  0
 19 20  2  0
 20 21  1  0
 21 22  2  0
 21 23  1  0
 23 24  1  0
 24 25  1  0
 25 26  2  0
 25 27  1  0
 27 28  1  0
 20  2  1  0
 17  8  1  0
M  END
>  <energy>  (331) 
180.42

>  <full_id>  (331) 
MOL00014166-001875-02_1

>  <mol_id>  (331) 
MOL00014166-001875-02

>  <act_mol>  (331) 
0

>  <act_conf>  (331) 
0

$$$$
MOL00014192-000636-03
     RDKit          3D

 25 26  0  0  0  0  0  0  0  0999 V2000
   -6.4012   -1.0861   -1.5967 C   0  0  0  0  0  0  0  0  0  0  0  0
   -5.0480   -1.2963   -1.2169 O   0  0  0  0  0  0  0  0  0  0  0  0
   -4.3850   -0.2511   -0.6286 C   0  0  0  0  0  0  0  0  0  0  0  0
   -4.9661    0.9796   -0.3020 C   0  0  0  0  0  0  0  0  0  0  0  0
   -4.2004    1.9941    0.2833 C   0  0  0  0  0  0  0  0  0  0  0  0
   -2.8494    1.7826    0.5558 C   0  0  0  0  0  0  0  0  0  0  0  0
   -2.1087    2.8144    1.0673 O   0  0  0  0  0  0  0  0  0  0  0  0
   -2.2628    2.8813    2.4866 C   0  0  0  0  0  0  0  0  0  0  0  0
   -2.2511    0.5680    0.2119 C   0  0  0  0  0  0  0  0  0  0  0  0
   -0.8227    0.3459    0.5016 C   0  0  0  0  0  0  0  0  0  0  0  0
   -0.5803    0.0424    1.6701 O   0  0  0  0  0  0  0  0  0  0  0  0
    0.0959    0.4800   -0.5473 N   0  0  0  0  0  0  0  0  0  0  0  0
   -0.3150    0.8764   -1.8973 C   0  0  0  0  0  0  0  0  0  0  0  0
    1.4508    0.1569   -0.3457 C   0  0  0  0  0  0  0  0  0  0  0  0
    2.1070   -0.2633    0.8417 C   0  0  0  0  0  0  0  0  0  0  0  0
    3.4350   -0.4587    0.5158 C   0  0  0  0  0  0  0  0  0  0  0  0
    4.6385   -0.8993    1.3179 C   0  0  0  0  0  0  0  0  0  0  0  0
    5.7167    0.2003    1.2936 C   0  0  0  0  0  0  0  0  0  0  0  0
    5.2186   -2.1966    0.7240 C   0  0  0  0  0  0  0  0  0  0  0  0
    4.2567   -1.1689    2.7866 C   0  0  0  0  0  0  0  0  0  0  0  0
    3.5016   -0.1539   -0.8152 N   0  0  0  0  0  0  0  0  0  0  0  0
    2.3351    0.2164   -1.3536 N   0  0  0  0  0  0  0  0  0  0  0  0
   -3.0227   -0.4591   -0.3480 C   0  0  0  0  0  0  0  0  0  0  0  0
   -2.4179   -1.6408   -0.7068 O   0  0  0  0  0  0  0  0  0  0  0  0
   -2.6024   -2.6205    0.3163 C   0  0  0  0  0  0  0  0  0  0  0  0
  1  2  1  0
  2  3  1  0
  3  4  2  0
  4  5  1  0
  5  6  2  0
  6  7  1  0
  7  8  1  0
  6  9  1  0
  9 10  1  0
 10 11  2  0
 10 12  1  0
 12 13  1  0
 12 14  1  0
 14 15  1  0
 15 16  2  0
 16 17  1  0
 17 18  1  0
 17 19  1  0
 17 20  1  0
 16 21  1  0
 21 22  1  0
  9 23  2  0
 23 24  1  0
 24 25  1  0
 23  3  1  0
 22 14  2  0
M  END
>  <energy>  (332) 
59.58

>  <full_id>  (332) 
MOL00014192-000636-03_1

>  <mol_id>  (332) 
MOL00014192-000636-03

>  <act_mol>  (332) 
0

>  <act_conf>  (332) 
0

$$$$
MOL00013698-000671-03
     RDKit          3D

 34 38  0  0  0  0  0  0  0  0999 V2000
    5.9033    2.4293    0.8859 C   0  0  0  0  0  0  0  0  0  0  0  0
    5.7435    1.0541    0.3067 C   0  0  0  0  0  0  0  0  0  0  0  0
    6.6940    0.1457    0.6649 N   0  0  0  0  0  0  0  0  0  0  0  0
    6.6412   -1.1111    0.1679 C   0  0  0  0  0  0  0  0  0  0  0  0
    7.6284   -2.0564    0.5233 N   0  0  0  0  0  0  0  0  0  0  0  0
    8.4568   -1.6040    1.6439 C   0  0  0  0  0  0  0  0  0  0  0  0
    8.4072   -2.4929   -0.6381 C   0  0  0  0  0  0  0  0  0  0  0  0
    5.6003   -1.4975   -0.6777 C   0  0  0  0  0  0  0  0  0  0  0  0
    4.6163   -0.5789   -1.0356 C   0  0  0  0  0  0  0  0  0  0  0  0
    4.6862    0.7206   -0.5348 C   0  0  0  0  0  0  0  0  0  0  0  0
    3.6528    1.7069   -0.9189 C   0  0  0  0  0  0  0  0  0  0  0  0
    4.0236    2.7644   -1.4090 O   0  0  0  0  0  0  0  0  0  0  0  0
    2.3692    1.2869   -0.6383 N   0  0  0  0  0  0  0  0  0  0  0  0
    1.2227    1.9512   -1.0155 C   0  0  0  0  0  0  0  0  0  0  0  0
    1.1738    3.0259   -1.8177 N   0  0  0  0  0  0  0  0  0  0  0  0
   -0.1369    3.3245   -1.9483 N   0  0  0  0  0  0  0  0  0  0  0  0
   -0.9032    2.4605   -1.2597 C   0  0  0  0  0  0  0  0  0  0  0  0
   -0.0734    1.5743   -0.6475 C   0  0  0  0  0  0  0  0  0  0  0  0
   -0.8336    0.5951    0.1296 C   0  0  0  0  0  0  0  0  0  0  0  0
   -2.2369    0.9594   -0.2488 N   0  0  0  0  0  0  0  0  0  0  0  0
   -3.3513    0.3661    0.3081 C   0  0  0  0  0  0  0  0  0  0  0  0
   -4.4527    0.9124    0.3266 O   0  0  0  0  0  0  0  0  0  0  0  0
   -3.1488   -0.8818    0.8832 N   0  0  0  0  0  0  0  0  0  0  0  0
   -4.1166   -1.2980    1.9004 C   0  0  0  0  0  0  0  0  0  0  0  0
   -5.3559   -1.9658    1.2806 C   0  0  0  0  0  0  0  0  0  0  0  0
   -4.9867   -3.1583    0.4811 N   0  0  0  0  0  0  0  0  0  0  0  0
   -6.1261   -3.6195   -0.3272 C   0  0  0  0  0  0  0  0  0  0  0  0
   -6.0608   -2.8666   -1.6527 C   0  0  0  0  0  0  0  0  0  0  0  0
   -4.6885   -2.2059   -1.6837 C   0  0  0  0  0  0  0  0  0  0  0  0
   -3.9352   -2.8365   -0.5126 C   0  0  1  0  0  0  0  0  0  0  0  0
   -2.7478   -1.9915    0.0099 C   0  0  0  0  0  0  0  0  0  0  0  0
   -2.3455    2.2559   -1.0138 C   0  0  0  0  0  0  0  0  0  0  0  0
   -3.1189    2.0705   -2.3203 C   0  0  0  0  0  0  0  0  0  0  0  0
   -2.9051    3.4103   -0.1744 C   0  0  0  0  0  0  0  0  0  0  0  0
  1  2  1  0
  2  3  2  0
  3  4  1  0
  4  5  1  0
  5  6  1  0
  5  7  1  0
  4  8  2  0
  8  9  1  0
  9 10  2  0
 10 11  1  0
 11 12  2  0
 11 13  1  0
 13 14  1  0
 14 15  2  0
 15 16  1  0
 16 17  1  0
 17 18  2  0
 18 19  1  0
 19 20  1  0
 20 21  1  0
 21 22  2  0
 21 23  1  0
 23 24  1  0
 24 25  1  0
 25 26  1  0
 26 27  1  0
 27 28  1  0
 28 29  1  0
 30 29  1  6
 30 31  1  0
 20 32  1  0
 32 33  1  0
 32 34  1  0
 10  2  1  0
 18 14  1  0
 31 23  1  0
 32 17  1  0
 30 26  1  0
M  END
>  <energy>  (333) 
-21.27

>  <full_id>  (333) 
MOL00013698-000671-03_1

>  <mol_id>  (333) 
MOL00013698-000671-03

>  <act_mol>  (333) 
0

>  <act_conf>  (333) 
0

$$$$
MOL00014094-000764-04
     RDKit          3D

 26 27  0  0  0  0  0  0  0  0999 V2000
   -7.6679   -1.7659   -0.1331 C   0  0  0  0  0  0  0  0  0  0  0  0
   -6.4083   -2.1910   -0.8719 C   0  0  0  0  0  0  0  0  0  0  0  0
   -5.2298   -1.7320   -0.1419 N   0  0  0  0  0  0  0  0  0  0  0  0
   -3.9911   -2.1126   -0.8363 C   0  0  0  0  0  0  0  0  0  0  0  0
   -2.7687   -1.4774   -0.1570 C   0  0  0  0  0  0  0  0  0  0  0  0
   -2.8394   -0.0611   -0.3391 O   0  0  0  0  0  0  0  0  0  0  0  0
   -1.8887    0.7149    0.2751 C   0  0  0  0  0  0  0  0  0  0  0  0
   -0.7693    0.2100    0.9479 C   0  0  0  0  0  0  0  0  0  0  0  0
    0.1631    1.0740    1.5421 C   0  0  0  0  0  0  0  0  0  0  0  0
    1.3752    0.5206    2.2509 C   0  0  0  0  0  0  0  0  0  0  0  0
    2.4132   -0.0885    1.3042 C   0  0  0  0  0  0  0  0  0  0  0  0
    3.0566    0.9509    0.3851 C   0  0  0  0  0  0  0  0  0  0  0  0
    4.0882    0.3366   -0.4316 N   0  0  0  0  0  0  0  0  0  0  0  0
    5.3435    0.0311    0.0605 C   0  0  0  0  0  0  0  0  0  0  0  0
    5.8331    0.5387    1.1615 N   0  0  0  0  0  0  0  0  0  0  0  0
    7.0585    0.1061    1.5638 N   0  0  0  0  0  0  0  0  0  0  0  0
    8.0208    0.0275    0.5551 N   0  0  0  0  0  0  0  0  0  0  0  0
    7.7106   -0.6172   -0.6189 C   0  0  0  0  0  0  0  0  0  0  0  0
    8.8046   -0.9038   -1.8297 S   0  0  0  0  0  0  0  0  0  0  0  0
    6.2515   -0.8930   -0.7198 C   0  0  0  0  0  0  0  0  0  0  0  0
    5.5928   -2.2286   -1.4656 S   0  0  0  0  0  0  0  0  0  0  0  0
   -0.0416    2.4543    1.4586 C   0  0  0  0  0  0  0  0  0  0  0  0
   -1.1540    2.9677    0.7867 C   0  0  0  0  0  0  0  0  0  0  0  0
   -2.0810    2.1078    0.1901 C   0  0  0  0  0  0  0  0  0  0  0  0
   -3.1993    2.5220   -0.4913 O   0  0  0  0  0  0  0  0  0  0  0  0
   -3.4375    3.9194   -0.5765 C   0  0  0  0  0  0  0  0  0  0  0  0
  1  2  1  0
  2  3  1  0
  3  4  1  0
  4  5  1  0
  5  6  1  0
  6  7  1  0
  7  8  2  0
  8  9  1  0
  9 10  1  0
 10 11  1  0
 11 12  1  0
 12 13  1  0
 13 14  1  0
 14 15  2  0
 15 16  1  0
 16 17  1  0
 17 18  1  0
 18 19  2  0
 18 20  1  0
 20 21  2  0
  9 22  2  0
 22 23  1  0
 23 24  2  0
 24 25  1  0
 25 26  1  0
 24  7  1  0
 20 14  1  0
M  END
>  <energy>  (334) 
107.28

>  <full_id>  (334) 
MOL00014094-000764-04_1

>  <mol_id>  (334) 
MOL00014094-000764-04

>  <act_mol>  (334) 
0

>  <act_conf>  (334) 
0

$$$$
MOL00013828-001556-03
     RDKit          3D

 33 36  0  0  0  0  0  0  0  0999 V2000
    0.8258    0.2592    1.8734 N   0  0  0  0  0  0  0  0  0  0  0  0
    1.5284    1.4076    1.6365 C   0  0  0  0  0  0  0  0  0  0  0  0
    1.0346    2.3396    1.0092 O   0  0  0  0  0  0  0  0  0  0  0  0
    2.9420    1.4356    2.2214 C   0  0  0  0  0  0  0  0  0  0  0  0
    3.9522    0.9158    1.3567 O   0  0  0  0  0  0  0  0  0  0  0  0
    3.9480   -0.4347    1.1991 C   0  0  0  0  0  0  0  0  0  0  0  0
    3.1603   -1.2033    1.7437 O   0  0  0  0  0  0  0  0  0  0  0  0
    5.1016   -0.8830    0.3117 C   0  0  0  0  0  0  0  0  0  0  0  0
    4.7402   -2.1151   -0.3759 N   0  0  0  0  0  0  0  0  0  0  0  0
    4.2396   -2.0685   -1.6595 C   0  0  0  0  0  0  0  0  0  0  0  0
    4.2879   -1.0588   -2.3542 O   0  0  0  0  0  0  0  0  0  0  0  0
    3.6908   -3.3940   -2.1526 C   0  0  0  0  0  0  0  0  0  0  0  0
    2.5599   -3.2138   -3.1650 C   0  0  0  0  0  0  0  0  0  0  0  0
    1.2653   -2.7963   -2.5036 C   0  0  0  0  0  0  0  0  0  0  0  0
    0.3496   -3.7602   -2.0634 C   0  0  0  0  0  0  0  0  0  0  0  0
   -0.8424   -3.3992   -1.4239 C   0  0  0  0  0  0  0  0  0  0  0  0
   -1.0817   -2.0362   -1.2238 C   0  0  0  0  0  0  0  0  0  0  0  0
   -2.1459   -1.3954   -0.6333 N   0  0  0  0  0  0  0  0  0  0  0  0
   -1.9444   -0.0313   -0.5981 C   0  0  0  0  0  0  0  0  0  0  0  0
   -2.9064    0.8018    0.0541 C   0  0  0  0  0  0  0  0  0  0  0  0
   -2.6157    2.0982    0.2719 C   0  0  0  0  0  0  0  0  0  0  0  0
   -3.5617    2.9949    0.9374 C   0  0  0  0  0  0  0  0  0  0  0  0
   -3.2538    4.3388    1.1661 C   0  0  0  0  0  0  0  0  0  0  0  0
   -4.1808    5.1702    1.7994 C   0  0  0  0  0  0  0  0  0  0  0  0
   -5.4158    4.6627    2.2061 C   0  0  0  0  0  0  0  0  0  0  0  0
   -5.7287    3.3210    1.9839 C   0  0  0  0  0  0  0  0  0  0  0  0
   -4.7998    2.4947    1.3521 C   0  0  0  0  0  0  0  0  0  0  0  0
   -5.0984    1.1468    1.1340 N   0  0  0  0  0  0  0  0  0  0  0  0
   -4.2373    0.2653    0.5354 C   0  0  0  0  0  0  0  0  0  0  0  0
   -4.5472   -0.9203    0.4122 O   0  0  0  0  0  0  0  0  0  0  0  0
   -0.7503    0.2012   -1.2599 C   0  0  0  0  0  0  0  0  0  0  0  0
   -0.1950   -1.0496   -1.6420 C   0  0  0  0  0  0  0  0  0  0  0  0
    0.9896   -1.4331   -2.2978 C   0  0  0  0  0  0  0  0  0  0  0  0
  1  2  1  0
  2  3  2  0
  2  4  1  0
  4  5  1  0
  5  6  1  0
  6  7  2  0
  6  8  1  0
  8  9  1  0
  9 10  1  0
 10 11  2  0
 10 12  1  0
 12 13  1  0
 13 14  1  0
 14 15  2  0
 15 16  1  0
 16 17  2  0
 17 18  1  0
 18 19  1  0
 19 20  1  0
 20 21  2  0
 21 22  1  0
 22 23  2  0
 23 24  1  0
 24 25  2  0
 25 26  1  0
 26 27  2  0
 27 28  1  0
 28 29  1  0
 29 30  2  0
 19 31  2  0
 31 32  1  0
 32 33  2  0
 33 14  1  0
 32 17  1  0
 29 20  1  0
 27 22  1  0
M  END
>  <energy>  (335) 
19.51

>  <full_id>  (335) 
MOL00013828-001556-03_1

>  <mol_id>  (335) 
MOL00013828-001556-03

>  <act_mol>  (335) 
0

>  <act_conf>  (335) 
0

$$$$
MOL00013922-000059-03
     RDKit          3D

 31 35  0  0  0  0  0  0  0  0999 V2000
   -6.0737   -1.3281    1.1248 C   0  0  0  0  0  0  0  0  0  0  0  0
   -5.0211   -2.1560    0.5001 C   0  0  0  0  0  0  0  0  0  0  0  0
   -5.1128   -3.5155    0.4019 N   0  0  0  0  0  0  0  0  0  0  0  0
   -4.0823   -4.0887   -0.2416 N   0  0  0  0  0  0  0  0  0  0  0  0
   -3.2813   -3.0611   -0.5398 C   0  0  0  0  0  0  0  0  0  0  0  0
   -3.8256   -1.8388   -0.0997 C   0  0  0  0  0  0  0  0  0  0  0  0
   -3.4200   -0.5287   -0.3143 N   0  0  0  0  0  0  0  0  0  0  0  0
   -2.1746   -0.2367   -0.5403 C   0  0  0  0  0  0  0  0  0  0  0  0
   -1.9563    1.2115   -0.8759 C   0  0  0  0  0  0  0  0  0  0  0  0
   -1.5513    1.5153   -2.1845 C   0  0  0  0  0  0  0  0  0  0  0  0
   -1.3494    2.8414   -2.5613 C   0  0  0  0  0  0  0  0  0  0  0  0
   -1.5618    3.8643   -1.6400 C   0  0  0  0  0  0  0  0  0  0  0  0
   -1.9761    3.5647   -0.3395 C   0  0  0  0  0  0  0  0  0  0  0  0
   -2.1747    2.2339    0.0676 C   0  0  0  0  0  0  0  0  0  0  0  0
   -2.6314    1.9557    1.4779 C   0  0  0  0  0  0  0  0  0  0  0  0
   -4.0705    1.7437    1.5487 N   0  0  0  0  0  0  0  0  0  0  0  0
   -0.9451   -1.1106   -0.5490 C   0  0  0  0  0  0  0  0  0  0  0  0
    0.2887   -0.4954   -0.2250 C   0  0  0  0  0  0  0  0  0  0  0  0
    1.5118   -1.1692   -0.3327 C   0  0  0  0  0  0  0  0  0  0  0  0
    2.6785   -0.4495   -0.0020 N   0  0  0  0  0  0  0  0  0  0  0  0
    3.9758   -0.9091    0.0319 C   0  0  0  0  0  0  0  0  0  0  0  0
    4.3215   -2.0688   -0.1778 O   0  0  0  0  0  0  0  0  0  0  0  0
    4.9115    0.0632    0.3330 N   0  0  0  0  0  0  0  0  0  0  0  0
    4.7165    1.4975    0.4902 C   0  0  0  0  0  0  0  0  0  0  0  0
    6.1215    2.0833    0.4627 C   0  0  0  0  0  0  0  0  0  0  0  0
    6.9740    0.9558    1.0280 C   0  0  0  0  0  0  0  0  0  0  0  0
    6.3185   -0.2858    0.4423 C   0  0  0  0  0  0  0  0  0  0  0  0
    1.5046   -2.4831   -0.7764 C   0  0  0  0  0  0  0  0  0  0  0  0
    0.2934   -3.1173   -1.0659 C   0  0  0  0  0  0  0  0  0  0  0  0
   -0.9458   -2.4607   -0.9273 C   0  0  0  0  0  0  0  0  0  0  0  0
   -2.1027   -3.2237   -1.1685 N   0  0  0  0  0  0  0  0  0  0  0  0
  1  2  1  0
  2  3  1  0
  3  4  1  0
  4  5  2  0
  5  6  1  0
  6  7  1  0
  7  8  2  0
  8  9  1  0
  9 10  2  0
 10 11  1  0
 11 12  2  0
 12 13  1  0
 13 14  2  0
 14 15  1  0
 15 16  1  0
  8 17  1  0
 17 18  2  0
 18 19  1  0
 19 20  1  0
 20 21  1  0
 21 22  2  0
 21 23  1  0
 23 24  1  0
 24 25  1  0
 25 26  1  0
 26 27  1  0
 19 28  2  0
 28 29  1  0
 29 30  2  0
 30 31  1  0
  6  2  2  0
 14  9  1  0
 30 17  1  0
 31  5  1  0
 27 23  1  0
M  END
>  <energy>  (336) 
0.77

>  <full_id>  (336) 
MOL00013922-000059-03_1

>  <mol_id>  (336) 
MOL00013922-000059-03

>  <act_mol>  (336) 
0

>  <act_conf>  (336) 
0

$$$$
MOL00013966-000370-04
     RDKit          3D

 35 37  0  0  0  0  0  0  0  0999 V2000
   -4.1034   -3.7463    0.6406 C   0  0  0  0  0  0  0  0  0  0  0  0
   -3.7608   -3.2316   -0.6419 O   0  0  0  0  0  0  0  0  0  0  0  0
   -3.0507   -2.0605   -0.6649 C   0  0  0  0  0  0  0  0  0  0  0  0
   -2.3460   -1.5438    0.4249 C   0  0  0  0  0  0  0  0  0  0  0  0
   -1.6689   -0.3280    0.2967 C   0  0  0  0  0  0  0  0  0  0  0  0
   -1.6764    0.3873   -0.9088 C   0  0  0  0  0  0  0  0  0  0  0  0
   -2.3589   -0.1480   -2.0032 C   0  0  0  0  0  0  0  0  0  0  0  0
   -3.0441   -1.3710   -1.8930 C   0  0  0  0  0  0  0  0  0  0  0  0
   -3.7954   -1.9165   -3.0787 C   0  0  0  0  0  0  0  0  0  0  0  0
   -1.0040    1.6104   -1.0037 N   0  0  0  0  0  0  0  0  0  0  0  0
   -0.3182    2.1400    0.0646 C   0  0  0  0  0  0  0  0  0  0  0  0
    0.3423    3.3159   -0.0017 C   0  0  0  0  0  0  0  0  0  0  0  0
    1.1836    3.9482    0.9242 N   0  0  0  0  0  0  0  0  0  0  0  0
    1.4271    5.3924    0.7641 C   0  0  0  0  0  0  0  0  0  0  0  0
    2.3872    3.2191    1.4362 C   0  0  0  0  0  0  0  0  0  0  0  0
    3.3991    2.9248    0.3020 C   0  0  0  0  0  0  0  0  0  0  0  0
    4.0445    3.8622   -0.1856 O   0  0  0  0  0  0  0  0  0  0  0  0
    3.4747    1.6334   -0.2339 N   0  0  0  0  0  0  0  0  0  0  0  0
    4.0003    1.5079   -1.5869 C   0  0  0  0  0  0  0  0  0  0  0  0
    3.0725    0.4383    0.4314 C   0  0  0  0  0  0  0  0  0  0  0  0
    3.3492    0.2408    1.7899 C   0  0  0  0  0  0  0  0  0  0  0  0
    2.9822   -0.9484    2.4472 C   0  0  0  0  0  0  0  0  0  0  0  0
    3.3066   -1.1041    3.9110 C   0  0  0  0  0  0  0  0  0  0  0  0
    2.3403   -1.9771    1.7192 C   0  0  0  0  0  0  0  0  0  0  0  0
    1.9807   -3.2112    2.3727 C   0  0  0  0  0  0  0  0  0  0  0  0
    1.7197   -4.2183    2.8913 N   0  0  0  0  0  0  0  0  0  0  0  0
    2.0894   -1.8077    0.3468 C   0  0  0  0  0  0  0  0  0  0  0  0
    1.4421   -2.9068   -0.4665 C   0  0  0  0  0  0  0  0  0  0  0  0
    2.2169   -4.0235   -0.5274 F   0  0  0  0  0  0  0  0  0  0  0  0
    0.2407   -3.2974    0.0264 F   0  0  0  0  0  0  0  0  0  0  0  0
    1.2162   -2.5495   -1.7606 F   0  0  0  0  0  0  0  0  0  0  0  0
    2.4695   -0.6025   -0.2808 C   0  0  0  0  0  0  0  0  0  0  0  0
   -0.3143    1.4577    1.2528 N   0  0  0  0  0  0  0  0  0  0  0  0
   -0.9356    0.2483    1.4535 C   0  0  0  0  0  0  0  0  0  0  0  0
   -0.8796   -0.3325    2.5316 O   0  0  0  0  0  0  0  0  0  0  0  0
  1  2  1  0
  2  3  1  0
  3  4  2  0
  4  5  1  0
  5  6  2  0
  6  7  1  0
  7  8  2  0
  8  9  1  0
  6 10  1  0
 10 11  1  0
 11 12  2  0
 12 13  1  0
 13 14  1  0
 13 15  1  0
 15 16  1  0
 16 17  2  0
 16 18  1  0
 18 19  1  0
 18 20  1  0
 20 21  2  0
 21 22  1  0
 22 23  1  0
 22 24  2  0
 24 25  1  0
 25 26  3  0
 24 27  1  0
 27 28  1  0
 28 29  1  0
 28 30  1  0
 28 31  1  0
 27 32  2  0
 11 33  1  0
 33 34  1  0
 34 35  2  0
  8  3  1  0
 32 20  1  0
 34  5  1  0
M  END
>  <energy>  (337) 
90.59

>  <full_id>  (337) 
MOL00013966-000370-04_1

>  <mol_id>  (337) 
MOL00013966-000370-04

>  <act_mol>  (337) 
0

>  <act_conf>  (337) 
0

$$$$
MOL00013912-000035-04
     RDKit          3D

 33 37  0  0  0  0  0  0  0  0999 V2000
   -1.9606    3.4530   -2.3543 C   0  0  0  0  0  0  0  0  0  0  0  0
   -2.0172    2.6658   -1.0502 C   0  0  0  0  0  0  0  0  0  0  0  0
   -1.2418    1.4137   -1.1177 N   0  0  0  0  0  0  0  0  0  0  0  0
   -1.7828    0.2508   -1.7156 C   0  0  0  0  0  0  0  0  0  0  0  0
   -1.0912   -0.7056   -2.0832 O   0  0  0  0  0  0  0  0  0  0  0  0
   -3.3334    0.1723   -1.8973 C   0  0  1  0  0  0  0  0  0  0  0  0
   -3.7057   -0.9677   -2.8528 C   0  0  0  0  0  0  0  0  0  0  0  0
   -3.9879    0.1217   -0.5744 N   0  0  0  0  0  0  0  0  0  0  0  0
   -3.5193   -0.9387    0.3441 C   0  0  0  0  0  0  0  0  0  0  0  0
   -4.6458   -1.2717    1.3550 C   0  0  1  0  0  0  0  0  0  0  0  0
   -5.2492    0.0146    1.9361 C   0  0  0  0  0  0  0  0  0  0  0  0
   -5.8019    0.8655    0.7803 C   0  0  0  0  0  0  0  0  0  0  0  0
   -5.4649    0.1775   -0.5594 C   0  0  2  0  0  0  0  0  0  0  0  0
   -6.1141   -1.2314   -0.5086 C   0  0  0  0  0  0  0  0  0  0  0  0
   -5.7004   -1.9696    0.6598 O   0  0  0  0  0  0  0  0  0  0  0  0
    0.1354    1.4439   -0.6570 C   0  0  0  0  0  0  0  0  0  0  0  0
    0.8401    2.6462   -0.4604 C   0  0  0  0  0  0  0  0  0  0  0  0
    2.1155    2.8013   -0.0126 N   0  0  0  0  0  0  0  0  0  0  0  0
    2.7421    1.6411    0.2619 C   0  0  0  0  0  0  0  0  0  0  0  0
    4.0219    1.5160    0.7196 N   0  0  0  0  0  0  0  0  0  0  0  0
    4.2338    0.2179    0.8626 C   0  0  0  0  0  0  0  0  0  0  0  0
    5.4865   -0.3887    1.3300 C   0  0  0  0  0  0  0  0  0  0  0  0
    5.6191   -1.7614    1.5841 C   0  0  0  0  0  0  0  0  0  0  0  0
    6.8373   -2.2891    2.0324 C   0  0  0  0  0  0  0  0  0  0  0  0
    7.9430   -1.4548    2.2347 C   0  0  0  0  0  0  0  0  0  0  0  0
    9.1773   -2.0225    2.6947 C   0  0  0  0  0  0  0  0  0  0  0  0
   10.1500   -2.5363    3.0677 N   0  0  0  0  0  0  0  0  0  0  0  0
    7.8149   -0.0882    1.9846 C   0  0  0  0  0  0  0  0  0  0  0  0
    8.8853    0.7396    2.1781 O   0  0  0  0  0  0  0  0  0  0  0  0
    6.6015    0.4408    1.5384 C   0  0  0  0  0  0  0  0  0  0  0  0
    3.1040   -0.4852    0.4991 N   0  0  0  0  0  0  0  0  0  0  0  0
    2.1399    0.4061    0.1143 C   0  0  0  0  0  0  0  0  0  0  0  0
    0.8265    0.2658   -0.3373 C   0  0  0  0  0  0  0  0  0  0  0  0
  1  2  1  0
  2  3  1  0
  3  4  1  0
  4  5  2  0
  4  6  1  0
  6  7  1  6
  6  8  1  0
  8  9  1  0
 10  9  1  6
 10 11  1  0
 11 12  1  0
 13 12  1  1
 13 14  1  0
 14 15  1  0
  3 16  1  0
 16 17  2  0
 17 18  1  0
 18 19  2  0
 19 20  1  0
 20 21  2  0
 21 22  1  0
 22 23  2  0
 23 24  1  0
 24 25  2  0
 25 26  1  0
 26 27  3  0
 25 28  1  0
 28 29  1  0
 28 30  2  0
 21 31  1  0
 31 32  1  0
 32 33  2  0
 13  8  1  0
 33 16  1  0
 15 10  1  0
 32 19  1  0
 30 22  1  0
M  END
>  <energy>  (338) 
161.03

>  <full_id>  (338) 
MOL00013912-000035-04_1

>  <mol_id>  (338) 
MOL00013912-000035-04

>  <act_mol>  (338) 
0

>  <act_conf>  (338) 
0

$$$$
MOL00014389-000342-03
     RDKit          3D

 22 24  0  0  0  0  0  0  0  0999 V2000
   -0.7302   -0.8646    3.1957 C   0  0  0  0  0  0  0  0  0  0  0  0
   -0.7975    0.2702    2.3314 O   0  0  0  0  0  0  0  0  0  0  0  0
   -2.0545    0.3806    1.7920 C   0  0  0  0  0  0  0  0  0  0  0  0
   -3.0642    0.9531    2.5691 C   0  0  0  0  0  0  0  0  0  0  0  0
   -4.3151    1.1361    2.0035 C   0  0  0  0  0  0  0  0  0  0  0  0
   -5.3484    1.6812    2.7020 O   0  0  0  0  0  0  0  0  0  0  0  0
   -4.5088    0.7624    0.6843 C   0  0  0  0  0  0  0  0  0  0  0  0
   -3.5429    0.2275   -0.1003 N   0  0  0  0  0  0  0  0  0  0  0  0
   -2.3230    0.0307    0.4577 C   0  0  0  0  0  0  0  0  0  0  0  0
   -1.3415   -0.4952   -0.4163 N   0  0  0  0  0  0  0  0  0  0  0  0
   -0.6289   -1.5679    0.0403 N   0  0  0  0  0  0  0  0  0  0  0  0
    0.5715   -1.6871   -0.4494 C   0  0  0  0  0  0  0  0  0  0  0  0
    1.2560   -0.7551   -1.4118 C   0  0  2  0  0  0  0  0  0  0  0  0
    2.0940   -1.5315   -2.4387 C   0  0  0  0  0  0  0  0  0  0  0  0
    1.6982   -2.3901   -3.2101 O   0  0  0  0  0  0  0  0  0  0  0  0
    3.4120   -1.1038   -2.3235 N   0  0  0  0  0  0  0  0  0  0  0  0
    3.5463   -0.1540   -1.3248 C   0  0  0  0  0  0  0  0  0  0  0  0
    4.6981    0.4847   -0.9198 C   0  0  0  0  0  0  0  0  0  0  0  0
    4.5829    1.4109    0.1198 C   0  0  0  0  0  0  0  0  0  0  0  0
    3.3353    1.6718    0.7174 C   0  0  0  0  0  0  0  0  0  0  0  0
    2.1814    1.0105    0.2870 C   0  0  0  0  0  0  0  0  0  0  0  0
    2.3066    0.0906   -0.7382 C   0  0  0  0  0  0  0  0  0  0  0  0
  1  2  1  0
  2  3  1  0
  3  4  2  0
  4  5  1  0
  5  6  1  0
  5  7  2  0
  7  8  1  0
  8  9  2  0
  9 10  1  0
 10 11  1  0
 11 12  2  0
 13 12  1  1
 13 14  1  0
 14 15  2  0
 14 16  1  0
 16 17  1  0
 17 18  2  0
 18 19  1  0
 19 20  2  0
 20 21  1  0
 21 22  2  0
  9  3  1  0
 22 13  1  0
 22 17  1  0
M  END
>  <energy>  (339) 
78.84

>  <full_id>  (339) 
MOL00014389-000342-03_1

>  <mol_id>  (339) 
MOL00014389-000342-03

>  <act_mol>  (339) 
0

>  <act_conf>  (339) 
0

$$$$
MOL00014196-001383-02
     RDKit          3D

 32 33  0  0  0  0  0  0  0  0999 V2000
   -7.8369   -0.9653   -2.6834 C   0  0  0  0  0  0  0  0  0  0  0  0
   -6.6408   -1.3143   -1.9533 N   0  0  0  0  0  0  0  0  0  0  0  0
   -5.9418   -0.5246   -1.0819 C   0  0  0  0  0  0  0  0  0  0  0  0
   -6.3343    1.0242   -0.6067 S   0  0  0  0  0  0  0  0  0  0  0  0
   -4.8205   -1.1362   -0.5621 N   0  0  0  0  0  0  0  0  0  0  0  0
   -4.4407   -2.3866   -0.9724 N   0  0  0  0  0  0  0  0  0  0  0  0
   -3.4637   -2.9574   -0.3314 C   0  0  0  0  0  0  0  0  0  0  0  0
   -2.9409   -4.2948   -0.7644 C   0  0  0  0  0  0  0  0  0  0  0  0
   -2.8211   -2.3781    0.9019 C   0  0  0  0  0  0  0  0  0  0  0  0
   -3.4548   -2.7507    2.2103 C   0  0  0  0  0  0  0  0  0  0  0  0
   -1.7794   -1.6237    0.7231 N   0  0  0  0  0  0  0  0  0  0  0  0
   -1.1664   -1.1153    1.8326 N   0  0  0  0  0  0  0  0  0  0  0  0
   -0.0033   -0.3670    1.7306 C   0  0  0  0  0  0  0  0  0  0  0  0
    0.7915    0.0222    3.1466 S   0  0  0  0  0  0  0  0  0  0  0  0
    0.3291   -0.0740    0.4205 N   0  0  0  0  0  0  0  0  0  0  0  0
    1.5724    0.4459   -0.0265 C   0  0  0  0  0  0  0  0  0  0  0  0
    2.3131   -0.3844   -0.8717 C   0  0  0  0  0  0  0  0  0  0  0  0
    1.7821   -1.5980   -1.2343 O   0  0  0  0  0  0  0  0  0  0  0  0
    3.5745   -0.0147   -1.3160 C   0  0  0  0  0  0  0  0  0  0  0  0
    4.1212    1.2181   -0.9454 C   0  0  0  0  0  0  0  0  0  0  0  0
    5.4329    1.5837   -1.3602 N   0  0  0  0  0  0  0  0  0  0  0  0
    6.3105    0.8743   -2.1610 C   0  0  0  0  0  0  0  0  0  0  0  0
    7.6150    1.6079   -2.3552 C   0  0  0  0  0  0  0  0  0  0  0  0
    6.1133   -0.2057   -2.7063 O   0  0  0  0  0  0  0  0  0  0  0  0
    3.3475    2.1315   -0.1506 C   0  0  0  0  0  0  0  0  0  0  0  0
    3.7874    3.4334    0.2133 C   0  0  0  0  0  0  0  0  0  0  0  0
    2.9888    4.3288    0.9330 C   0  0  0  0  0  0  0  0  0  0  0  0
    1.7056    3.9657    1.3196 C   0  0  0  0  0  0  0  0  0  0  0  0
    0.8129    4.9306    2.0563 C   0  0  0  0  0  0  0  0  0  0  0  0
   -0.0692    5.6431    1.1368 N   0  0  0  0  0  0  0  0  0  0  0  0
    1.2461    2.6890    0.9747 C   0  0  0  0  0  0  0  0  0  0  0  0
    2.0469    1.7428    0.2869 C   0  0  0  0  0  0  0  0  0  0  0  0
  1  2  1  0
  2  3  1  0
  3  4  2  0
  3  5  1  0
  5  6  1  0
  6  7  2  0
  7  8  1  0
  7  9  1  0
  9 10  1  0
  9 11  2  0
 11 12  1  0
 12 13  1  0
 13 14  2  0
 13 15  1  0
 15 16  1  0
 16 17  2  0
 17 18  1  0
 17 19  1  0
 19 20  2  0
 20 21  1  0
 21 22  1  0
 22 23  1  0
 22 24  2  0
 20 25  1  0
 25 26  2  0
 26 27  1  0
 27 28  2  0
 28 29  1  0
 29 30  1  0
 28 31  1  0
 31 32  2  0
 32 16  1  0
 32 25  1  0
M  END
>  <energy>  (340) 
52.25

>  <full_id>  (340) 
MOL00014196-001383-02_1

>  <mol_id>  (340) 
MOL00014196-001383-02

>  <act_mol>  (340) 
0

>  <act_conf>  (340) 
0

$$$$
MOL00014345-000974-04
     RDKit          3D

 33 37  0  0  0  0  0  0  0  0999 V2000
   -2.2814    3.1497    0.8373 C   0  0  0  0  0  0  0  0  0  0  0  0
   -3.4418    2.2060    0.8856 C   0  0  0  0  0  0  0  0  0  0  0  0
   -4.6199    2.6868    1.3248 N   0  0  0  0  0  0  0  0  0  0  0  0
   -5.6491    1.8202    1.3884 C   0  0  0  0  0  0  0  0  0  0  0  0
   -5.5469    0.4993    1.0389 C   0  0  0  0  0  0  0  0  0  0  0  0
   -4.2992    0.1053    0.6109 C   0  0  0  0  0  0  0  0  0  0  0  0
   -4.0655   -1.3198    0.2055 C   0  0  0  0  0  0  0  0  0  0  0  0
   -4.9801   -2.1310    0.2883 O   0  0  0  0  0  0  0  0  0  0  0  0
   -2.7758   -1.5573   -0.2284 N   0  0  0  0  0  0  0  0  0  0  0  0
   -2.2023   -2.7580   -0.7056 C   0  0  0  0  0  0  0  0  0  0  0  0
   -2.9510   -3.9324   -0.8485 C   0  0  0  0  0  0  0  0  0  0  0  0
   -2.3679   -5.1036   -1.3432 C   0  0  0  0  0  0  0  0  0  0  0  0
   -1.0271   -5.1201   -1.7102 C   0  0  0  0  0  0  0  0  0  0  0  0
   -0.2588   -3.9665   -1.5694 C   0  0  0  0  0  0  0  0  0  0  0  0
   -0.8319   -2.7897   -1.0526 C   0  0  0  0  0  0  0  0  0  0  0  0
    0.0255   -1.5785   -0.8863 C   0  0  0  0  0  0  0  0  0  0  0  0
   -0.4529   -0.4588   -1.0603 O   0  0  0  0  0  0  0  0  0  0  0  0
    1.3280   -1.8145   -0.4983 N   0  0  0  0  0  0  0  0  0  0  0  0
    2.2323   -0.8025   -0.3088 C   0  0  0  0  0  0  0  0  0  0  0  0
    3.4682   -0.9786    0.0936 N   0  0  0  0  0  0  0  0  0  0  0  0
    4.0180    0.2805    0.1496 C   0  0  0  0  0  0  0  0  0  0  0  0
    5.3169    0.6669    0.5220 C   0  0  0  0  0  0  0  0  0  0  0  0
    5.5844    2.0247    0.4808 C   0  0  0  0  0  0  0  0  0  0  0  0
    4.6439    2.9587    0.0992 C   0  0  0  0  0  0  0  0  0  0  0  0
    3.3545    2.6216   -0.2750 C   0  0  0  0  0  0  0  0  0  0  0  0
    3.0844    1.2493   -0.2332 C   0  0  0  0  0  0  0  0  0  0  0  0
    1.9579    0.5239   -0.5200 N   0  0  0  0  0  0  0  0  0  0  0  0
    5.1317    4.2303    0.1352 O   0  0  0  0  0  0  0  0  0  0  0  0
    6.4707    3.9750    0.5794 C   0  0  0  0  0  0  0  0  0  0  0  0
    6.6787    4.6565    1.7329 F   0  0  0  0  0  0  0  0  0  0  0  0
    7.3319    4.4647   -0.3462 F   0  0  0  0  0  0  0  0  0  0  0  0
    6.7796    2.5936    0.8038 O   0  0  0  0  0  0  0  0  0  0  0  0
   -3.2261    0.9309    0.5280 N   0  0  0  0  0  0  0  0  0  0  0  0
  1  2  1  0
  2  3  2  0
  3  4  1  0
  4  5  2  0
  5  6  1  0
  6  7  1  0
  7  8  2  0
  7  9  1  0
  9 10  1  0
 10 11  2  0
 11 12  1  0
 12 13  2  0
 13 14  1  0
 14 15  2  0
 15 16  1  0
 16 17  2  0
 16 18  1  0
 18 19  1  0
 19 20  2  0
 20 21  1  0
 21 22  2  0
 22 23  1  0
 23 24  2  0
 24 25  1  0
 25 26  2  0
 26 27  1  0
 24 28  1  0
 28 29  1  0
 29 30  1  0
 29 31  1  0
 29 32  1  0
  6 33  2  0
 33  2  1  0
 15 10  1  0
 27 19  1  0
 26 21  1  0
 32 23  1  0
M  END
>  <energy>  (341) 
-6.68

>  <full_id>  (341) 
MOL00014345-000974-04_1

>  <mol_id>  (341) 
MOL00014345-000974-04

>  <act_mol>  (341) 
0

>  <act_conf>  (341) 
0

$$$$
MOL00014200-001430-03
     RDKit          3D

 32 35  0  0  0  0  0  0  0  0999 V2000
   -2.5932   -5.4932   -1.2098 C   0  0  0  0  0  0  0  0  0  0  0  0
   -1.9242   -4.1871   -1.0430 C   0  0  0  0  0  0  0  0  0  0  0  0
   -1.9945   -3.3671   -0.0173 N   0  0  0  0  0  0  0  0  0  0  0  0
   -1.1987   -2.3058   -0.3966 C   0  0  0  0  0  0  0  0  0  0  0  0
   -0.9634   -1.0914    0.4961 C   0  0  1  0  0  0  0  0  0  0  0  0
    0.3349   -0.3987    0.3113 N   0  0  0  0  0  0  0  0  0  0  0  0
    0.6863    0.7433    1.0426 C   0  0  0  0  0  0  0  0  0  0  0  0
    0.2435    0.9568    2.3682 C   0  0  0  0  0  0  0  0  0  0  0  0
   -0.5708    0.0758    2.9691 F   0  0  0  0  0  0  0  0  0  0  0  0
    0.6290    2.0584    3.1291 C   0  0  0  0  0  0  0  0  0  0  0  0
    1.5014    2.9793    2.5860 C   0  0  0  0  0  0  0  0  0  0  0  0
    1.8761    4.0435    3.3058 F   0  0  0  0  0  0  0  0  0  0  0  0
    2.0077    2.8037    1.3102 C   0  0  0  0  0  0  0  0  0  0  0  0
    1.6308    1.6767    0.5562 C   0  0  0  0  0  0  0  0  0  0  0  0
    2.3182    1.5616   -1.0884 S   0  0  0  0  0  6  0  0  0  0  0  0
    2.7210    2.8972   -1.4807 O   0  0  0  0  0  0  0  0  0  0  0  0
    1.3889    0.8064   -1.9042 O   0  0  0  0  0  0  0  0  0  0  0  0
    3.7133    0.6477   -0.8930 N   0  0  0  0  0  0  0  0  0  0  0  0
    3.6162   -0.7934   -0.5915 C   0  0  0  0  0  0  0  0  0  0  0  0
    5.0328   -1.1594   -0.1700 C   0  0  0  0  0  0  0  0  0  0  0  0
    5.4633    0.0715    0.6067 C   0  0  0  0  0  0  0  0  0  0  0  0
    4.8945    1.2206   -0.2181 C   0  0  0  0  0  0  0  0  0  0  0  0
   -2.1396   -0.1665    0.1811 C   0  0  0  0  0  0  0  0  0  0  0  0
   -3.1720   -0.0056    1.1211 C   0  0  0  0  0  0  0  0  0  0  0  0
   -4.2490    0.8481    0.8664 C   0  0  0  0  0  0  0  0  0  0  0  0
   -4.3250    1.5551   -0.3384 C   0  0  0  0  0  0  0  0  0  0  0  0
   -5.4710    2.4911   -0.6136 C   0  0  0  0  0  0  0  0  0  0  0  0
   -5.0316    3.8448   -0.5993 O   0  0  0  0  0  0  0  0  0  0  0  0
   -3.3023    1.3986   -1.2824 C   0  0  0  0  0  0  0  0  0  0  0  0
   -2.2235    0.5493   -1.0269 C   0  0  0  0  0  0  0  0  0  0  0  0
   -0.6072   -2.4644   -1.5965 N   0  0  0  0  0  0  0  0  0  0  0  0
   -1.1010   -3.6477   -1.9889 N   0  0  0  0  0  0  0  0  0  0  0  0
  1  2  1  0
  2  3  2  0
  3  4  1  0
  4  5  1  0
  5  6  1  6
  6  7  1  0
  7  8  2  0
  8  9  1  0
  8 10  1  0
 10 11  2  0
 11 12  1  0
 11 13  1  0
 13 14  2  0
 14 15  1  0
 15 16  2  0
 15 17  2  0
 15 18  1  0
 18 19  1  0
 19 20  1  0
 20 21  1  0
 21 22  1  0
  5 23  1  0
 23 24  2  0
 24 25  1  0
 25 26  2  0
 26 27  1  0
 27 28  1  0
 26 29  1  0
 29 30  2  0
  4 31  2  0
 31 32  1  0
 32  2  1  0
 14  7  1  0
 22 18  1  0
 30 23  1  0
M  END
>  <energy>  (342) 
68.23

>  <full_id>  (342) 
MOL00014200-001430-03_1

>  <mol_id>  (342) 
MOL00014200-001430-03

>  <act_mol>  (342) 
0

>  <act_conf>  (342) 
0

$$$$
MOL00014412-000087-04
     RDKit          3D

 22 23  0  0  0  0  0  0  0  0999 V2000
    2.7638    1.6959    1.6852 C   0  0  0  0  0  0  0  0  0  0  0  0
    2.2420    0.6381    0.7539 C   0  0  0  0  0  0  0  0  0  0  0  0
    1.0035    0.8409    0.1205 C   0  0  0  0  0  0  0  0  0  0  0  0
    0.4484   -0.1141   -0.7529 C   0  0  0  0  0  0  0  0  0  0  0  0
   -0.9101    0.1821   -1.3819 C   0  0  1  0  0  0  0  0  0  0  0  0
   -1.2406   -0.6532   -2.6227 C   0  0  0  0  0  0  0  0  0  0  0  0
   -1.9219   -0.0361   -0.3593 N   0  0  0  0  0  0  0  0  0  0  0  0
   -3.0962    0.6232   -0.3699 C   0  0  0  0  0  0  0  0  0  0  0  0
   -3.4024    1.6487   -1.1625 N   0  0  0  0  0  0  0  0  0  0  0  0
   -4.6545    1.9712   -0.8197 N   0  0  0  0  0  0  0  0  0  0  0  0
   -5.1747    1.1893    0.1712 C   0  0  0  0  0  0  0  0  0  0  0  0
   -6.5454    1.3819    0.6957 C   0  0  0  0  0  0  0  0  0  0  0  0
   -4.1746    0.2903    0.4970 C   0  0  0  0  0  0  0  0  0  0  0  0
   -4.2154   -0.7807    1.5223 C   0  0  0  0  0  0  0  0  0  0  0  0
    1.1530   -1.3049   -0.9599 C   0  0  0  0  0  0  0  0  0  0  0  0
    2.3844   -1.5212   -0.3349 C   0  0  0  0  0  0  0  0  0  0  0  0
    2.9369   -0.5560    0.5090 C   0  0  0  0  0  0  0  0  0  0  0  0
    4.2018   -0.7910    1.1266 N   0  0  0  0  0  0  0  0  0  0  0  0
    5.5720   -1.0325    0.1815 S   0  0  0  0  0  6  0  0  0  0  0  0
    5.6478    0.4585   -0.7929 C   0  0  0  0  0  0  0  0  0  0  0  0
    5.3689   -2.1547   -0.7075 O   0  0  0  0  0  0  0  0  0  0  0  0
    6.6883   -1.0035    1.1038 O   0  0  0  0  0  0  0  0  0  0  0  0
  1  2  1  0
  2  3  2  0
  3  4  1  0
  4  5  1  0
  5  6  1  6
  5  7  1  0
  7  8  1  0
  8  9  2  0
  9 10  1  0
 10 11  1  0
 11 12  1  0
 11 13  2  0
 13 14  1  0
  4 15  2  0
 15 16  1  0
 16 17  2  0
 17 18  1  0
 18 19  1  0
 19 20  1  0
 19 21  2  0
 19 22  2  0
 17  2  1  0
 13  8  1  0
M  END
>  <energy>  (343) 
-75.36

>  <full_id>  (343) 
MOL00014412-000087-04_1

>  <mol_id>  (343) 
MOL00014412-000087-04

>  <act_mol>  (343) 
0

>  <act_conf>  (343) 
0

$$$$
MOL00014509-000734-02
     RDKit          3D

 26 28  0  0  0  0  0  0  0  0999 V2000
    4.7316   -1.7344    1.5580 C   0  0  0  0  0  0  0  0  0  0  0  0
    4.5526   -0.4749    2.3208 C   0  0  0  0  0  0  0  0  0  0  0  0
    5.2178   -0.0206    3.4384 C   0  0  0  0  0  0  0  0  0  0  0  0
    4.6654    1.2446    3.7247 C   0  0  0  0  0  0  0  0  0  0  0  0
    5.0516    2.1712    4.8316 C   0  0  0  0  0  0  0  0  0  0  0  0
    6.4050    2.6072    4.7086 O   0  0  0  0  0  0  0  0  0  0  0  0
    3.7180    1.5829    2.8420 N   0  0  0  0  0  0  0  0  0  0  0  0
    3.6431    0.5135    1.9847 N   0  0  0  0  0  0  0  0  0  0  0  0
    2.6508    0.5707    0.9539 C   0  0  0  0  0  0  0  0  0  0  0  0
    1.9603    1.7640    0.8597 N   0  0  0  0  0  0  0  0  0  0  0  0
    2.4573   -0.4889    0.2276 N   0  0  0  0  0  0  0  0  0  0  0  0
    1.5377   -0.4227   -0.7871 C   0  0  0  0  0  0  0  0  0  0  0  0
    1.9721   -0.0233   -2.3551 S   0  0  0  0  0  0  0  0  0  0  0  0
    0.3069   -0.8066   -0.3109 N   0  0  0  0  0  0  0  0  0  0  0  0
   -0.9926   -0.8362   -0.8534 C   0  0  0  0  0  0  0  0  0  0  0  0
   -1.9711   -1.4731   -0.0836 C   0  0  0  0  0  0  0  0  0  0  0  0
   -3.3027   -1.5499   -0.5163 C   0  0  0  0  0  0  0  0  0  0  0  0
   -3.7020   -0.9850   -1.7286 C   0  0  0  0  0  0  0  0  0  0  0  0
   -5.0413   -1.0622   -2.1872 N   0  0  0  0  0  0  0  0  0  0  0  0
   -5.4778   -0.5316   -3.4624 C   0  0  0  0  0  0  0  0  0  0  0  0
   -6.8894   -1.0731   -3.6246 C   0  0  0  0  0  0  0  0  0  0  0  0
   -7.2771   -1.4030   -2.2874 N   0  0  0  0  0  0  0  0  0  0  0  0
   -6.1539   -1.5519   -1.4765 C   0  0  0  0  0  0  0  0  0  0  0  0
   -6.2202   -2.0446   -0.3629 O   0  0  0  0  0  0  0  0  0  0  0  0
   -2.7202   -0.3354   -2.4870 C   0  0  0  0  0  0  0  0  0  0  0  0
   -1.3856   -0.2573   -2.0537 C   0  0  0  0  0  0  0  0  0  0  0  0
  1  2  1  0
  2  3  2  0
  3  4  1  0
  4  5  1  0
  5  6  1  0
  4  7  2  0
  7  8  1  0
  8  9  1  0
  9 10  1  0
  9 11  2  0
 11 12  1  0
 12 13  2  0
 12 14  1  0
 14 15  1  0
 15 16  2  0
 16 17  1  0
 17 18  2  0
 18 19  1  0
 19 20  1  0
 20 21  1  0
 21 22  1  0
 22 23  1  0
 23 24  2  0
 18 25  1  0
 25 26  2  0
  8  2  1  0
 26 15  1  0
 23 19  1  0
M  END
>  <energy>  (344) 
-3.94

>  <full_id>  (344) 
MOL00014509-000734-02_1

>  <mol_id>  (344) 
MOL00014509-000734-02

>  <act_mol>  (344) 
0

>  <act_conf>  (344) 
0

$$$$
MOL00013752-001215-04
     RDKit          3D

 33 36  0  0  0  0  0  0  0  0999 V2000
   -0.5478   -0.3448   -4.4306 C   0  0  0  0  0  0  0  0  0  0  0  0
    0.0468   -0.2380   -3.0184 C   0  0  1  0  0  0  0  0  0  0  0  0
   -0.9025    0.5221   -2.0785 C   0  0  0  0  0  0  0  0  0  0  0  0
   -2.1627   -0.2784   -1.7089 C   0  0  2  0  0  0  0  0  0  0  0  0
   -2.9571    0.4650   -0.7407 N   0  0  0  0  0  0  0  0  0  0  0  0
   -3.7843    1.4844   -1.1320 C   0  0  0  0  0  0  0  0  0  0  0  0
   -3.9225    1.7939   -2.3142 O   0  0  0  0  0  0  0  0  0  0  0  0
   -4.4429    2.1433   -0.1042 N   0  0  0  0  0  0  0  0  0  0  0  0
   -5.3634    3.2069   -0.4741 C   0  0  0  0  0  0  0  0  0  0  0  0
   -4.0565    2.0700    1.3116 C   0  0  0  0  0  0  0  0  0  0  0  0
   -5.0521    1.2805    2.1666 C   0  0  0  0  0  0  0  0  0  0  0  0
   -5.0582   -0.1922    1.8544 C   0  0  0  0  0  0  0  0  0  0  0  0
   -6.2053   -0.8191    1.3770 C   0  0  0  0  0  0  0  0  0  0  0  0
   -6.1710   -2.1907    1.1340 C   0  0  0  0  0  0  0  0  0  0  0  0
   -5.0023   -2.9001    1.3843 C   0  0  0  0  0  0  0  0  0  0  0  0
   -3.9044   -2.2018    1.8536 C   0  0  0  0  0  0  0  0  0  0  0  0
   -3.9014   -0.8671    2.0749 N   0  0  0  0  0  0  0  0  0  0  0  0
   -1.8030   -1.6658   -1.1672 C   0  0  0  0  0  0  0  0  0  0  0  0
   -0.8597   -2.4254   -2.1033 C   0  0  0  0  0  0  0  0  0  0  0  0
    0.4191   -1.6329   -2.4534 C   0  0  2  0  0  0  0  0  0  0  0  0
    1.2441   -1.6057   -1.2375 N   0  0  0  0  0  0  0  0  0  0  0  0
    2.5358   -1.0045   -1.3316 C   0  0  2  0  0  0  0  0  0  0  0  0
    3.4307   -1.9133   -1.9702 N   0  0  0  0  0  0  0  0  0  0  0  0
    4.7587   -1.3228   -2.1267 C   0  0  0  0  0  0  0  0  0  0  0  0
    5.0677   -0.2898   -1.0385 C   0  0  0  0  0  0  0  0  0  0  0  0
    4.3560   -0.6889    0.2628 C   0  0  1  0  0  0  0  0  0  0  0  0
    4.5873    0.3229    1.4158 C   0  0  2  0  0  0  0  0  0  0  0  0
    4.1342   -0.2615    2.7708 C   0  0  0  0  0  0  0  0  0  0  0  0
    4.3274    0.7517    3.8970 C   0  0  0  0  0  0  0  0  0  0  0  0
    3.6681    2.0847    3.5548 C   0  0  0  0  0  0  0  0  0  0  0  0
    4.1717    2.6248    2.2898 N   0  0  0  0  0  0  0  0  0  0  0  0
    3.9093    1.6889    1.1850 C   0  0  0  0  0  0  0  0  0  0  0  0
    2.9194   -0.9402    0.0494 N   0  0  0  0  0  0  0  0  0  0  0  0
  2  1  1  6
  2  3  1  0
  3  4  1  0
  4  5  1  1
  5  6  1  0
  6  7  2  0
  6  8  1  0
  8  9  1  0
  8 10  1  0
 10 11  1  0
 11 12  1  0
 12 13  2  0
 13 14  1  0
 14 15  2  0
 15 16  1  0
 16 17  2  0
  4 18  1  0
 18 19  1  0
 19 20  1  0
 20 21  1  1
 22 21  1  1
 22 23  1  0
 23 24  1  0
 24 25  1  0
 26 25  1  6
 26 27  1  0
 27 28  1  1
 28 29  1  0
 29 30  1  0
 30 31  1  0
 31 32  1  0
 26 33  1  0
 20  2  1  0
 33 22  1  0
 17 12  1  0
 32 27  1  0
M  END
>  <energy>  (345) 
-220.50

>  <full_id>  (345) 
MOL00013752-001215-04_1

>  <mol_id>  (345) 
MOL00013752-001215-04

>  <act_mol>  (345) 
0

>  <act_conf>  (345) 
0

$$$$
MOL00014219-001620-03
     RDKit          3D

 34 36  0  0  0  0  0  0  0  0999 V2000
   -5.2578    2.2281   -2.8449 C   0  0  0  0  0  0  0  0  0  0  0  0
   -5.8529    2.5446   -1.5543 N   0  0  0  0  0  0  0  0  0  0  0  0
   -6.4118    3.8808   -1.4207 C   0  0  0  0  0  0  0  0  0  0  0  0
   -5.6400    1.8007   -0.3953 C   0  0  0  0  0  0  0  0  0  0  0  0
   -5.9954    2.2021    0.7147 O   0  0  0  0  0  0  0  0  0  0  0  0
   -4.9534    0.4579   -0.5598 C   0  0  0  0  0  0  0  0  0  0  0  0
   -4.7977   -0.2444    0.7866 C   0  0  0  0  0  0  0  0  0  0  0  0
   -4.1914   -1.5609    0.6183 N   0  0  0  0  0  0  0  0  0  0  0  0
   -2.8093   -1.6020    0.7556 C   0  0  0  0  0  0  0  0  0  0  0  0
   -2.0475   -0.6039    0.2966 N   0  0  0  0  0  0  0  0  0  0  0  0
   -0.7225   -0.7148    0.4656 C   0  0  0  0  0  0  0  0  0  0  0  0
    0.0691    0.3398   -0.0272 N   0  0  0  0  0  0  0  0  0  0  0  0
    1.2516    0.7144    0.5533 N   0  0  0  0  0  0  0  0  0  0  0  0
    2.3657    1.1209   -0.2118 C   0  0  0  0  0  0  0  0  0  0  0  0
    2.4766    0.8155   -1.5742 C   0  0  0  0  0  0  0  0  0  0  0  0
    3.6234    1.1602   -2.2978 C   0  0  0  0  0  0  0  0  0  0  0  0
    4.6914    1.8036   -1.6635 C   0  0  0  0  0  0  0  0  0  0  0  0
    5.8918    2.1405   -2.4750 C   0  0  0  0  0  0  0  0  0  0  0  0
    6.0255    1.8391   -3.6505 O   0  0  0  0  0  0  0  0  0  0  0  0
    6.7996    2.8210   -1.7362 O   0  0  0  0  0  0  0  0  0  0  0  0
    7.9835    3.1689   -2.4711 C   0  0  0  0  0  0  0  0  0  0  0  0
    8.9246    3.8753   -1.5897 C   0  0  0  0  0  0  0  0  0  0  0  0
    9.6715    4.4322   -0.8955 N   0  0  0  0  0  0  0  0  0  0  0  0
    4.6025    2.0880   -0.2953 C   0  0  0  0  0  0  0  0  0  0  0  0
    3.4523    1.7371    0.4225 C   0  0  0  0  0  0  0  0  0  0  0  0
   -0.1445   -1.8101    1.0701 C   0  0  0  0  0  0  0  0  0  0  0  0
   -0.9959   -2.7989    1.5136 C   0  0  0  0  0  0  0  0  0  0  0  0
   -0.5206   -4.0282    2.1832 C   0  0  0  0  0  0  0  0  0  0  0  0
    0.7096   -4.6299    1.8573 C   0  0  0  0  0  0  0  0  0  0  0  0
    1.1468   -5.7905    2.5053 C   0  0  0  0  0  0  0  0  0  0  0  0
    0.3610   -6.3770    3.4934 C   0  0  0  0  0  0  0  0  0  0  0  0
   -0.8633   -5.8088    3.8287 C   0  0  0  0  0  0  0  0  0  0  0  0
   -1.2981   -4.6500    3.1776 C   0  0  0  0  0  0  0  0  0  0  0  0
   -2.3336   -2.6894    1.3681 N   0  0  0  0  0  0  0  0  0  0  0  0
  1  2  1  0
  2  3  1  0
  2  4  1  0
  4  5  2  0
  4  6  1  0
  6  7  1  0
  7  8  1  0
  8  9  1  0
  9 10  2  0
 10 11  1  0
 11 12  1  0
 12 13  1  0
 13 14  1  0
 14 15  2  0
 15 16  1  0
 16 17  2  0
 17 18  1  0
 18 19  2  0
 18 20  1  0
 20 21  1  0
 21 22  1  0
 22 23  3  0
 17 24  1  0
 24 25  2  0
 11 26  2  0
 26 27  1  0
 27 28  1  0
 28 29  2  0
 29 30  1  0
 30 31  2  0
 31 32  1  0
 32 33  2  0
 27 34  2  0
 34  9  1  0
 25 14  1  0
 33 28  1  0
M  END
>  <energy>  (346) 
-62.81

>  <full_id>  (346) 
MOL00014219-001620-03_1

>  <mol_id>  (346) 
MOL00014219-001620-03

>  <act_mol>  (346) 
0

>  <act_conf>  (346) 
0

$$$$
MOL00014604-001186-03
     RDKit          3D

 19 19  0  0  0  0  0  0  0  0999 V2000
    6.3567    0.6752   -1.0078 C   0  0  0  0  0  0  0  0  0  0  0  0
    5.0613   -0.0500   -1.3113 C   0  0  0  0  0  0  0  0  0  0  0  0
    3.7165    0.5552   -0.3053 S   0  0  0  0  0  6  0  0  0  0  0  0
    3.9978    0.2082    1.0743 O   0  0  0  0  0  0  0  0  0  0  0  0
    3.4487    1.9258   -0.6936 O   0  0  0  0  0  0  0  0  0  0  0  0
    2.3475   -0.4449   -0.8405 C   0  0  0  0  0  0  0  0  0  0  0  0
    1.0842   -0.0356   -0.1059 C   0  0  0  0  0  0  0  0  0  0  0  0
   -0.0211   -0.9003   -0.5104 N   0  0  0  0  0  0  0  0  0  0  0  0
   -1.2848   -0.4995   -0.2393 C   0  0  0  0  0  0  0  0  0  0  0  0
   -1.6462    0.7302    0.0149 N   0  0  0  0  0  0  0  0  0  0  0  0
   -3.0226    0.8235    0.2502 C   0  0  0  0  0  0  0  0  0  0  0  0
   -3.5713    2.1504    0.5606 C   0  0  0  0  0  0  0  0  0  0  0  0
   -2.6066    3.3128    0.5629 C   0  0  0  0  0  0  0  0  0  0  0  0
   -4.7613    2.3402    0.8167 O   0  0  0  0  0  0  0  0  0  0  0  0
   -3.7017   -0.3888    0.1629 C   0  0  0  0  0  0  0  0  0  0  0  0
   -5.0867   -0.8053    0.3077 C   0  0  0  0  0  0  0  0  0  0  0  0
   -6.0419    0.1483    0.4888 N   0  0  0  0  0  0  0  0  0  0  0  0
   -5.4682   -1.9756    0.2727 O   0  0  0  0  0  0  0  0  0  0  0  0
   -2.5577   -1.6361   -0.2093 S   0  0  0  0  0  0  0  0  0  0  0  0
  1  2  1  0
  3  2  1  0
  3  4  2  0
  3  5  2  0
  3  6  1  0
  6  7  1  0
  7  8  1  0
  8  9  1  0
  9 10  2  0
 10 11  1  0
 11 12  1  0
 12 13  1  0
 12 14  2  0
 11 15  2  0
 15 16  1  0
 16 17  1  0
 16 18  2  0
 15 19  1  0
 19  9  1  0
M  END
>  <energy>  (347) 
-65.77

>  <full_id>  (347) 
MOL00014604-001186-03_1

>  <mol_id>  (347) 
MOL00014604-001186-03

>  <act_mol>  (347) 
0

>  <act_conf>  (347) 
0

$$$$
MOL00014298-001748-03
     RDKit          3D

 31 34  0  0  0  0  0  0  0  0999 V2000
   -2.0218    3.2559   -0.0740 C   0  0  0  0  0  0  0  0  0  0  0  0
   -2.5272    2.1462   -0.8070 O   0  0  0  0  0  0  0  0  0  0  0  0
   -1.8176    0.9761   -0.7103 C   0  0  0  0  0  0  0  0  0  0  0  0
   -0.4430    0.9243   -0.4205 C   0  0  0  0  0  0  0  0  0  0  0  0
    0.2379   -0.2962   -0.3435 C   0  0  0  0  0  0  0  0  0  0  0  0
    1.6211   -0.3956   -0.0938 N   0  0  0  0  0  0  0  0  0  0  0  0
    2.2285    0.4580    0.9465 C   0  0  1  0  0  0  0  0  0  0  0  0
    1.9274   -0.1456    2.3245 C   0  0  0  0  0  0  0  0  0  0  0  0
    3.7256    0.5616    0.7136 C   0  0  0  0  0  0  0  0  0  0  0  0
    4.4647   -0.2122   -0.1057 C   0  0  0  0  0  0  0  0  0  0  0  0
    5.9071   -0.0151   -0.2547 C   0  0  0  0  0  0  0  0  0  0  0  0
    6.6664   -0.8269   -1.1038 C   0  0  0  0  0  0  0  0  0  0  0  0
    8.0429   -0.6224   -1.2263 C   0  0  0  0  0  0  0  0  0  0  0  0
    8.6674    0.3931   -0.5002 C   0  0  0  0  0  0  0  0  0  0  0  0
    7.9138    1.2084    0.3461 C   0  0  0  0  0  0  0  0  0  0  0  0
    8.7169    2.4561    1.2292 Cl  0  0  0  0  0  0  0  0  0  0  0  0
    6.5338    1.0059    0.4680 C   0  0  0  0  0  0  0  0  0  0  0  0
    5.7489    1.8156    1.3030 N   0  0  0  0  0  0  0  0  0  0  0  0
    4.3975    1.6783    1.4574 C   0  0  0  0  0  0  0  0  0  0  0  0
    3.7658    2.4440    2.1802 O   0  0  0  0  0  0  0  0  0  0  0  0
   -0.4853   -1.4597   -0.6480 C   0  0  0  0  0  0  0  0  0  0  0  0
    0.1436   -2.6469   -0.6220 F   0  0  0  0  0  0  0  0  0  0  0  0
   -1.8411   -1.4296   -0.9546 C   0  0  0  0  0  0  0  0  0  0  0  0
   -2.5285   -0.2080   -0.9814 C   0  0  0  0  0  0  0  0  0  0  0  0
   -4.0136   -0.1966   -1.2867 C   0  0  0  0  0  0  0  0  0  0  0  0
   -4.8594   -0.0893   -0.0855 N   0  0  0  0  0  0  0  0  0  0  0  0
   -4.8425   -1.3239    0.7252 C   0  0  0  0  0  0  0  0  0  0  0  0
   -5.8032   -1.2458    1.9333 C   0  0  0  0  0  0  0  0  0  0  0  0
   -7.1887   -0.9393    1.5462 N   0  0  0  0  0  0  0  0  0  0  0  0
   -7.2005    0.2904    0.7390 C   0  0  0  0  0  0  0  0  0  0  0  0
   -6.2515    0.2149   -0.4763 C   0  0  0  0  0  0  0  0  0  0  0  0
  1  2  1  0
  2  3  1  0
  3  4  2  0
  4  5  1  0
  5  6  1  0
  6  7  1  0
  7  8  1  1
  7  9  1  0
  9 10  2  0
 10 11  1  0
 11 12  2  0
 12 13  1  0
 13 14  2  0
 14 15  1  0
 15 16  1  0
 15 17  2  0
 17 18  1  0
 18 19  1  0
 19 20  2  0
  5 21  2  0
 21 22  1  0
 21 23  1  0
 23 24  2  0
 24 25  1  0
 25 26  1  0
 26 27  1  0
 27 28  1  0
 28 29  1  0
 29 30  1  0
 30 31  1  0
 24  3  1  0
 31 26  1  0
 19  9  1  0
 17 11  1  0
M  END
>  <energy>  (348) 
108.22

>  <full_id>  (348) 
MOL00014298-001748-03_1

>  <mol_id>  (348) 
MOL00014298-001748-03

>  <act_mol>  (348) 
0

>  <act_conf>  (348) 
0

$$$$
MOL00014335-000904-03
     RDKit          3D

 26 29  0  0  0  0  0  0  0  0999 V2000
   -2.5115   -0.2327    3.0168 C   0  0  0  0  0  0  0  0  0  0  0  0
   -1.8641   -0.2944    1.6598 C   0  0  0  0  0  0  0  0  0  0  0  0
   -0.4820   -0.5380    1.5615 C   0  0  0  0  0  0  0  0  0  0  0  0
    0.1568   -0.6052    0.3182 C   0  0  0  0  0  0  0  0  0  0  0  0
    1.5396   -0.8439    0.3190 N   0  0  0  0  0  0  0  0  0  0  0  0
    2.4023   -0.9525   -0.7549 C   0  0  0  0  0  0  0  0  0  0  0  0
    2.1103   -0.8458   -1.9440 O   0  0  0  0  0  0  0  0  0  0  0  0
    3.8709   -1.1625   -0.3260 C   0  0  2  0  0  0  0  0  0  0  0  0
    3.9353   -1.6073    1.0940 N   0  0  0  0  0  0  0  0  0  0  0  0
    4.5597   -0.5430    1.8747 N   0  0  0  0  0  0  0  0  0  0  0  0
    4.4807    0.6741    1.0508 C   0  0  1  0  0  0  0  0  0  0  0  0
    5.4871    1.7570    1.4452 C   0  0  0  0  0  0  0  0  0  0  0  0
    6.9250    1.4453    1.0436 C   0  0  0  0  0  0  0  0  0  0  0  0
    7.0142    1.0812   -0.4335 C   0  0  0  0  0  0  0  0  0  0  0  0
    6.1197   -0.1098   -0.7531 C   0  0  0  0  0  0  0  0  0  0  0  0
    4.6506    0.1490   -0.3719 C   0  0  1  0  0  0  0  0  0  0  0  0
   -0.5997   -0.4337   -0.8368 C   0  0  0  0  0  0  0  0  0  0  0  0
   -1.9766   -0.1969   -0.7504 C   0  0  0  0  0  0  0  0  0  0  0  0
   -2.6276   -0.1200    0.4898 C   0  0  0  0  0  0  0  0  0  0  0  0
   -4.0140    0.1055    0.5997 N   0  0  0  0  0  0  0  0  0  0  0  0
   -4.8052   -1.0740    0.1875 C   0  0  0  0  0  0  0  0  0  0  0  0
   -6.3130   -0.8155    0.4297 C   0  0  0  0  0  0  0  0  0  0  0  0
   -6.8531    0.4240   -0.1793 N   0  0  0  0  0  0  0  0  0  0  0  0
   -6.9687    0.3021   -1.6310 C   0  0  0  0  0  0  0  0  0  0  0  0
   -5.9842    1.5624    0.2059 C   0  0  0  0  0  0  0  0  0  0  0  0
   -4.4695    1.3556   -0.0450 C   0  0  0  0  0  0  0  0  0  0  0  0
  1  2  1  0
  2  3  2  0
  3  4  1  0
  4  5  1  0
  5  6  1  0
  6  7  2  0
  8  6  1  1
  8  9  1  0
  9 10  1  0
 10 11  1  0
 11 12  1  1
 12 13  1  0
 13 14  1  0
 14 15  1  0
 16 15  1  1
  4 17  2  0
 17 18  1  0
 18 19  2  0
 19 20  1  0
 20 21  1  0
 21 22  1  0
 22 23  1  0
 23 24  1  0
 23 25  1  0
 25 26  1  0
 19  2  1  0
 26 20  1  0
 16  8  1  0
 16 11  1  0
M  END
>  <energy>  (349) 
156.73

>  <full_id>  (349) 
MOL00014335-000904-03_1

>  <mol_id>  (349) 
MOL00014335-000904-03

>  <act_mol>  (349) 
0

>  <act_conf>  (349) 
0

$$$$
MOL00014343-001809-03
     RDKit          3D

 31 33  0  0  0  0  0  0  0  0999 V2000
  -10.4288    0.1199   -0.3321 C   0  0  0  0  0  0  0  0  0  0  0  0
   -8.9641   -0.1885   -0.4353 C   0  0  0  0  0  0  0  0  0  0  0  0
   -8.4971   -1.4901   -0.2238 C   0  0  0  0  0  0  0  0  0  0  0  0
   -7.1375   -1.7852   -0.3502 C   0  0  0  0  0  0  0  0  0  0  0  0
   -6.2235   -0.7864   -0.7098 C   0  0  0  0  0  0  0  0  0  0  0  0
   -4.7541   -1.0969   -0.8255 C   0  0  0  0  0  0  0  0  0  0  0  0
   -4.1597   -0.8355    0.4451 O   0  0  0  0  0  0  0  0  0  0  0  0
   -2.8114   -1.0215    0.5637 C   0  0  0  0  0  0  0  0  0  0  0  0
   -1.9427   -1.4757   -0.4272 C   0  0  0  0  0  0  0  0  0  0  0  0
   -0.5646   -1.6286   -0.1630 C   0  0  0  0  0  0  0  0  0  0  0  0
    0.3298   -2.1260   -1.2691 C   0  0  0  0  0  0  0  0  0  0  0  0
   -0.0544   -1.2921    1.1118 C   0  0  0  0  0  0  0  0  0  0  0  0
    1.3751   -1.3995    1.4405 C   0  0  0  0  0  0  0  0  0  0  0  0
    1.7359   -2.2343    2.3963 N   0  0  0  0  0  0  0  0  0  0  0  0
    2.2283   -0.6492    0.7760 N   0  0  0  0  0  4  0  0  0  0  0  0
    3.5921   -0.7293    1.0671 O   0  0  0  0  0  0  0  0  0  0  0  0
    4.3031    0.1095    0.2236 C   0  0  0  0  0  0  0  0  0  0  0  0
    3.7090    0.7646   -0.6244 O   0  0  0  0  0  0  0  0  0  0  0  0
    5.6437    0.0600    0.4967 N   0  0  0  0  0  0  0  0  0  0  0  0
    6.6754    0.7649   -0.1564 C   0  0  0  0  0  0  0  0  0  0  0  0
    7.9818    0.5568    0.3029 C   0  0  0  0  0  0  0  0  0  0  0  0
    9.0618    1.2154   -0.2929 C   0  0  0  0  0  0  0  0  0  0  0  0
    8.8549    2.0856   -1.3658 C   0  0  0  0  0  0  0  0  0  0  0  0
   10.0059    2.8203   -1.9877 C   0  0  0  0  0  0  0  0  0  0  0  0
    7.5492    2.3049   -1.8142 C   0  0  0  0  0  0  0  0  0  0  0  0
    6.4674    1.6463   -1.2180 C   0  0  0  0  0  0  0  0  0  0  0  0
   -0.9370   -0.8409    2.1024 C   0  0  0  0  0  0  0  0  0  0  0  0
   -2.2903   -0.7151    1.8207 C   0  0  0  0  0  0  0  0  0  0  0  0
   -3.1069   -0.2708    2.8222 O   0  0  0  0  0  0  0  0  0  0  0  0
   -6.6933    0.5164   -0.9231 C   0  0  0  0  0  0  0  0  0  0  0  0
   -8.0530    0.8099   -0.7962 C   0  0  0  0  0  0  0  0  0  0  0  0
  1  2  1  0
  2  3  2  0
  3  4  1  0
  4  5  2  0
  5  6  1  0
  6  7  1  0
  7  8  1  0
  8  9  2  0
  9 10  1  0
 10 11  1  0
 10 12  2  0
 12 13  1  0
 13 14  1  0
 13 15  2  0
 15 16  1  0
 16 17  1  0
 17 18  2  0
 17 19  1  0
 19 20  1  0
 20 21  2  0
 21 22  1  0
 22 23  2  0
 23 24  1  0
 23 25  1  0
 25 26  2  0
 12 27  1  0
 27 28  2  0
 28 29  1  0
  5 30  1  0
 30 31  2  0
 31  2  1  0
 28  8  1  0
 26 20  1  0
M  CHG  1  15   1
M  END
>  <energy>  (350) 
57.14

>  <full_id>  (350) 
MOL00014343-001809-03_1

>  <mol_id>  (350) 
MOL00014343-001809-03

>  <act_mol>  (350) 
0

>  <act_conf>  (350) 
0

$$$$
MOL00014609-000723-03
     RDKit          3D

 24 26  0  0  0  0  0  0  0  0999 V2000
    2.2329    1.4188    4.8092 C   0  0  0  0  0  0  0  0  0  0  0  0
    2.0255    0.0399    4.1946 C   0  0  2  0  0  0  0  0  0  0  0  0
    1.1509    0.1967    3.0771 O   0  0  0  0  0  0  0  0  0  0  0  0
    0.5473   -0.9685    2.6873 C   0  0  0  0  0  0  0  0  0  0  0  0
    0.3886   -2.0700    3.5082 C   0  0  0  0  0  0  0  0  0  0  0  0
   -0.2641   -3.1825    3.1508 N   0  0  0  0  0  0  0  0  0  0  0  0
   -0.7615   -3.1726    1.9088 C   0  0  0  0  0  0  0  0  0  0  0  0
   -0.6697   -2.1675    1.0254 N   0  0  0  0  0  0  0  0  0  0  0  0
   -0.0246   -1.0539    1.4214 C   0  0  0  0  0  0  0  0  0  0  0  0
    0.1354    0.0555    0.5493 N   0  0  0  0  0  0  0  0  0  0  0  0
   -0.2417    0.2274   -0.8009 C   0  0  0  0  0  0  0  0  0  0  0  0
   -0.3953   -0.8538   -1.6704 C   0  0  0  0  0  0  0  0  0  0  0  0
   -0.7323   -0.6741   -3.0236 C   0  0  0  0  0  0  0  0  0  0  0  0
   -0.9301    0.5924   -3.5907 C   0  0  0  0  0  0  0  0  0  0  0  0
   -1.2517    0.7676   -4.9398 N   0  0  0  0  0  0  0  0  0  0  0  0
   -1.6738   -0.3902   -5.7282 C   0  0  0  0  0  0  0  0  0  0  0  0
   -1.7796    2.0573   -5.3856 C   0  0  0  0  0  0  0  0  0  0  0  0
   -0.7309    1.6762   -2.7233 C   0  0  0  0  0  0  0  0  0  0  0  0
   -0.3910    1.5078   -1.3637 C   0  0  0  0  0  0  0  0  0  0  0  0
   -0.2094    2.6893   -0.5711 C   0  0  0  0  0  0  0  0  0  0  0  0
   -0.0630    3.6267    0.0979 N   0  0  0  0  0  0  0  0  0  0  0  0
    0.8838   -2.0327    4.8048 N   0  0  0  0  0  0  0  0  0  0  0  0
    1.6064   -0.9735    5.2762 C   0  0  0  0  0  0  0  0  0  0  0  0
    1.9492   -0.9080    6.4532 O   0  0  0  0  0  0  0  0  0  0  0  0
  2  1  1  1
  2  3  1  0
  3  4  1  0
  4  5  2  0
  5  6  1  0
  6  7  2  0
  7  8  1  0
  8  9  2  0
  9 10  1  0
 10 11  1  0
 11 12  2  0
 12 13  1  0
 13 14  2  0
 14 15  1  0
 15 16  1  0
 15 17  1  0
 14 18  1  0
 18 19  2  0
 19 20  1  0
 20 21  3  0
  5 22  1  0
 22 23  1  0
 23 24  2  0
 23  2  1  0
  9  4  1  0
 19 11  1  0
M  END
>  <energy>  (351) 
19.50

>  <full_id>  (351) 
MOL00014609-000723-03_1

>  <mol_id>  (351) 
MOL00014609-000723-03

>  <act_mol>  (351) 
0

>  <act_conf>  (351) 
0

$$$$
MOL00014547-000691-03
     RDKit          3D

 28 30  0  0  0  0  0  0  0  0999 V2000
   -4.5201   -2.0840   -0.3143 C   0  0  0  0  0  0  0  0  0  0  0  0
   -5.3592   -1.1056    0.0712 C   0  0  0  0  0  0  0  0  0  0  0  0
   -6.5803   -1.5095    0.7850 C   0  0  0  0  0  0  0  0  0  0  0  0
   -7.5978   -0.6490    0.9866 C   0  0  0  0  0  0  0  0  0  0  0  0
   -8.7517   -0.9817    1.6613 N   0  0  0  0  0  0  0  0  0  0  0  0
   -7.5052    0.7024    0.4503 C   0  0  0  0  0  0  0  0  0  0  0  0
   -6.3779    1.1837   -0.1028 C   0  0  0  0  0  0  0  0  0  0  0  0
   -5.1629    0.3515   -0.1921 C   0  0  0  0  0  0  0  0  0  0  0  0
   -3.9781    0.9441   -0.4829 C   0  0  0  0  0  0  0  0  0  0  0  0
   -3.7161    2.2779   -0.6829 N   0  0  0  0  0  0  0  0  0  0  0  0
   -2.3879    2.4922   -0.7316 N   0  0  0  0  0  0  0  0  0  0  0  0
   -1.9178    1.2854   -0.6865 C   0  0  0  0  0  0  0  0  0  0  0  0
   -0.5772    1.0414   -0.7496 N   0  0  0  0  0  0  0  0  0  0  0  0
    0.0395   -0.1941   -0.7459 C   0  0  0  0  0  0  0  0  0  0  0  0
   -0.5325   -1.2760   -0.7997 O   0  0  0  0  0  0  0  0  0  0  0  0
    1.5286   -0.1603   -0.7350 C   0  0  0  0  0  0  0  0  0  0  0  0
    2.2219   -1.1832   -1.3919 C   0  0  0  0  0  0  0  0  0  0  0  0
    3.6183   -1.1894   -1.4073 C   0  0  0  0  0  0  0  0  0  0  0  0
    4.3391   -0.1779   -0.7589 C   0  0  0  0  0  0  0  0  0  0  0  0
    5.8513   -0.1957   -0.7587 C   0  0  0  0  0  0  0  0  0  0  0  0
    6.4278   -1.0950    0.3377 C   0  0  0  0  0  0  0  0  0  0  0  0
    6.1784   -0.5641    1.6517 O   0  0  0  0  0  0  0  0  0  0  0  0
    7.0288    0.4125    2.0669 C   0  0  0  0  0  0  0  0  0  0  0  0
    6.6632    0.8549    3.4503 C   0  0  0  0  0  0  0  0  0  0  0  0
    7.9501    0.8786    1.4123 O   0  0  0  0  0  0  0  0  0  0  0  0
    3.6406    0.8326   -0.0840 C   0  0  0  0  0  0  0  0  0  0  0  0
    2.2429    0.8425   -0.0678 C   0  0  0  0  0  0  0  0  0  0  0  0
   -2.7799    0.2344   -0.5499 O   0  0  0  0  0  0  0  0  0  0  0  0
  1  2  2  0
  2  3  1  0
  3  4  2  0
  4  5  1  0
  4  6  1  0
  6  7  2  0
  7  8  1  0
  8  9  2  0
  9 10  1  0
 10 11  1  0
 11 12  2  0
 12 13  1  0
 13 14  1  0
 14 15  2  0
 14 16  1  0
 16 17  2  0
 17 18  1  0
 18 19  2  0
 19 20  1  0
 20 21  1  0
 21 22  1  0
 22 23  1  0
 23 24  1  0
 23 25  2  0
 19 26  1  0
 26 27  2  0
 12 28  1  0
  8  2  1  0
 28  9  1  0
 27 16  1  0
M  END
>  <energy>  (352) 
17.04

>  <full_id>  (352) 
MOL00014547-000691-03_1

>  <mol_id>  (352) 
MOL00014547-000691-03

>  <act_mol>  (352) 
0

>  <act_conf>  (352) 
0

$$$$
MOL00014348-000812-02
     RDKit          3D

 36 39  0  0  0  0  0  0  0  0999 V2000
   -5.0495    0.8195    3.9233 C   0  0  0  0  0  0  0  0  0  0  0  0
   -3.6978    1.1247    3.4431 N   0  0  0  0  0  0  0  0  0  0  0  0
   -2.8492    1.7944    4.4407 C   0  0  0  0  0  0  0  0  0  0  0  0
   -3.6874    1.8418    2.2227 C   0  0  0  0  0  0  0  0  0  0  0  0
   -4.3555    3.0562    2.0154 C   0  0  0  0  0  0  0  0  0  0  0  0
   -4.2474    3.7243    0.7898 C   0  0  0  0  0  0  0  0  0  0  0  0
   -3.4563    3.1874   -0.2325 C   0  0  0  0  0  0  0  0  0  0  0  0
   -2.7633    1.9855   -0.0491 C   0  0  0  0  0  0  0  0  0  0  0  0
   -1.9799    1.4576   -1.0928 N   0  0  0  0  0  0  0  0  0  0  0  0
   -0.7733    1.6871   -0.8817 N   0  0  0  0  0  0  0  0  0  0  0  0
    0.0204    0.9611   -1.8040 C   0  0  0  0  0  0  0  0  0  0  0  0
    0.4084   -0.3599   -1.4505 C   0  0  0  0  0  0  0  0  0  0  0  0
   -0.0132   -0.9303   -0.2151 N   0  0  0  0  0  0  0  0  0  0  0  0
    0.8105   -1.5722    0.7488 C   0  0  0  0  0  0  0  0  0  0  0  0
    2.2014   -1.4224    0.7885 C   0  0  0  0  0  0  0  0  0  0  0  0
    2.9696   -2.0249    1.8044 C   0  0  0  0  0  0  0  0  0  0  0  0
    4.4687   -1.8643    1.8102 C   0  0  0  0  0  0  0  0  0  0  0  0
    5.0867   -2.9211    1.0452 N   0  0  0  0  0  0  0  0  0  0  0  0
    5.7092   -2.7035   -0.1429 C   0  0  0  0  0  0  0  0  0  0  0  0
    6.1836   -3.8484   -0.6955 N   0  0  0  0  0  0  0  0  0  0  0  0
    5.8704   -1.6175   -0.6861 O   0  0  0  0  0  0  0  0  0  0  0  0
    2.3312   -2.8023    2.7820 C   0  0  0  0  0  0  0  0  0  0  0  0
    0.9465   -2.9662    2.7539 C   0  0  0  0  0  0  0  0  0  0  0  0
    0.2049   -2.3499    1.7502 C   0  0  0  0  0  0  0  0  0  0  0  0
   -1.1499   -2.5443    1.7527 O   0  0  0  0  0  0  0  0  0  0  0  0
    1.1897   -1.0991   -2.3380 C   0  0  0  0  0  0  0  0  0  0  0  0
    1.6079   -0.5348   -3.5433 C   0  0  0  0  0  0  0  0  0  0  0  0
    1.2595    0.7796   -3.8948 C   0  0  0  0  0  0  0  0  0  0  0  0
    1.7155    1.3172   -5.1135 C   0  0  0  0  0  0  0  0  0  0  0  0
    1.3924    2.6186   -5.4937 C   0  0  0  0  0  0  0  0  0  0  0  0
    0.6123    3.4057   -4.6588 C   0  0  0  0  0  0  0  0  0  0  0  0
    0.1578    2.8876   -3.4474 C   0  0  0  0  0  0  0  0  0  0  0  0
   -0.5932    3.7572   -2.6963 O   0  0  0  0  0  0  0  0  0  0  0  0
    0.4569    1.5615   -3.0255 C   0  0  0  0  0  0  0  0  0  0  0  0
   -2.9041    1.3230    1.1733 C   0  0  0  0  0  0  0  0  0  0  0  0
   -2.2598    0.1307    1.4043 O   0  0  0  0  0  0  0  0  0  0  0  0
  1  2  1  0
  2  3  1  0
  2  4  1  0
  4  5  2  0
  5  6  1  0
  6  7  2  0
  7  8  1  0
  8  9  1  0
  9 10  2  0
 10 11  1  0
 11 12  1  0
 12 13  1  0
 13 14  1  0
 14 15  2  0
 15 16  1  0
 16 17  1  0
 17 18  1  0
 18 19  1  0
 19 20  1  0
 19 21  2  0
 16 22  2  0
 22 23  1  0
 23 24  2  0
 24 25  1  0
 12 26  2  0
 26 27  1  0
 27 28  2  0
 28 29  1  0
 29 30  2  0
 30 31  1  0
 31 32  2  0
 32 33  1  0
 32 34  1  0
  8 35  2  0
 35 36  1  0
 35  4  1  0
 34 11  2  0
 24 14  1  0
 34 28  1  0
M  END
>  <energy>  (353) 
-9.83

>  <full_id>  (353) 
MOL00014348-000812-02_1

>  <mol_id>  (353) 
MOL00014348-000812-02

>  <act_mol>  (353) 
0

>  <act_conf>  (353) 
0

$$$$
MOL00014540-001494-02
     RDKit          3D

 26 28  0  0  0  0  0  0  0  0999 V2000
   -6.4665   -1.6571   -1.7669 C   0  0  0  0  0  0  0  0  0  0  0  0
   -6.8857   -0.5573   -0.8007 C   0  0  0  0  0  0  0  0  0  0  0  0
   -6.0976    0.7450   -1.0220 C   0  0  1  0  0  0  0  0  0  0  0  0
   -6.5299    1.8739   -0.0589 C   0  0  0  0  0  0  0  0  0  0  0  0
   -6.1065    1.6320    1.3303 N   0  0  0  0  0  0  0  0  0  0  0  0
   -4.6442    1.4253    1.3386 C   0  0  0  0  0  0  0  0  0  0  0  0
   -4.1981    0.2986    0.3736 C   0  0  2  0  0  0  0  0  0  0  0  0
   -2.6845    0.1874    0.3450 C   0  0  0  0  0  0  0  0  0  0  0  0
   -2.0301   -0.7407    1.1652 C   0  0  0  0  0  0  0  0  0  0  0  0
   -0.6339   -0.8296    1.1669 C   0  0  0  0  0  0  0  0  0  0  0  0
    0.1381    0.0121    0.3579 C   0  0  0  0  0  0  0  0  0  0  0  0
    1.5367   -0.1457    0.4094 N   0  0  0  0  0  0  0  0  0  0  0  0
    2.4947    0.6555   -0.1707 C   0  0  0  0  0  0  0  0  0  0  0  0
    2.3170    1.7116   -0.7618 O   0  0  0  0  0  0  0  0  0  0  0  0
    3.7514    0.1166    0.0154 N   0  0  0  0  0  0  0  0  0  0  0  0
    4.8867    0.7812   -0.5802 C   0  0  0  0  0  0  0  0  0  0  0  0
    6.1142    0.0645   -0.1549 C   0  0  0  0  0  0  0  0  0  0  0  0
    6.8142   -0.9059   -0.8450 C   0  0  0  0  0  0  0  0  0  0  0  0
    7.8664   -1.2558   -0.0537 N   0  0  0  0  0  0  0  0  0  0  0  0
    8.8943   -2.2236   -0.3498 C   0  0  0  0  0  0  0  0  0  0  0  0
    7.8983   -0.5966    1.1153 N   0  0  0  0  0  0  0  0  0  0  0  0
    6.8380    0.2188    1.0605 C   0  0  0  0  0  0  0  0  0  0  0  0
    6.5353    1.1315    2.1913 C   0  0  0  0  0  0  0  0  0  0  0  0
   -0.5090    0.9359   -0.4617 C   0  0  0  0  0  0  0  0  0  0  0  0
   -1.9060    1.0245   -0.4660 C   0  0  0  0  0  0  0  0  0  0  0  0
   -4.6749    0.5393   -0.9642 O   0  0  0  0  0  0  0  0  0  0  0  0
  1  2  1  0
  3  2  1  1
  3  4  1  0
  4  5  1  0
  5  6  1  0
  6  7  1  0
  7  8  1  6
  8  9  2  0
  9 10  1  0
 10 11  2  0
 11 12  1  0
 12 13  1  0
 13 14  2  0
 13 15  1  0
 15 16  1  0
 16 17  1  0
 17 18  2  0
 18 19  1  0
 19 20  1  0
 19 21  1  0
 21 22  2  0
 22 23  1  0
 11 24  1  0
 24 25  2  0
  7 26  1  0
 26  3  1  0
 25  8  1  0
 22 17  1  0
M  END
>  <energy>  (354) 
15.35

>  <full_id>  (354) 
MOL00014540-001494-02_1

>  <mol_id>  (354) 
MOL00014540-001494-02

>  <act_mol>  (354) 
0

>  <act_conf>  (354) 
0

$$$$
MOL00014576-003129-02
     RDKit          3D

 29 32  0  0  0  0  0  0  0  0999 V2000
    4.4561   -2.2319   -4.1714 C   0  0  0  0  0  0  0  0  0  0  0  0
    5.1054   -1.8508   -2.9573 O   0  0  0  0  0  0  0  0  0  0  0  0
    4.2558   -1.4372   -1.9780 C   0  0  0  0  0  0  0  0  0  0  0  0
    3.0404   -1.4016   -2.0985 O   0  0  0  0  0  0  0  0  0  0  0  0
    5.0037   -1.1071   -0.8835 N   0  0  0  0  0  0  0  0  0  0  0  0
    4.5638   -0.6223    0.3608 C   0  0  0  0  0  0  0  0  0  0  0  0
    5.5213   -0.4808    1.3669 C   0  0  0  0  0  0  0  0  0  0  0  0
    5.1798   -0.0090    2.6385 C   0  0  0  0  0  0  0  0  0  0  0  0
    3.8390    0.3097    2.8752 C   0  0  0  0  0  0  0  0  0  0  0  0
    3.2408    0.8034    4.0082 N   0  0  0  0  0  0  0  0  0  0  0  0
    1.9096    0.9965    3.7949 C   0  0  0  0  0  0  0  0  0  0  0  0
    1.1565    1.5090    4.7617 O   0  0  0  0  0  0  0  0  0  0  0  0
    1.5930    0.5791    2.5109 C   0  0  0  0  0  0  0  0  0  0  0  0
    0.2301    0.6050    1.9806 C   0  0  0  0  0  0  0  0  0  0  0  0
   -0.6273    1.3439    2.6025 N   0  0  0  0  0  0  0  0  0  0  0  0
   -1.9959    1.3562    2.0547 C   0  0  0  0  0  0  0  0  0  0  0  0
   -2.3006    0.4062    0.9252 C   0  0  0  0  0  0  0  0  0  0  0  0
   -3.5971    0.2969    0.4034 C   0  0  0  0  0  0  0  0  0  0  0  0
   -3.8656   -0.5713   -0.6636 C   0  0  0  0  0  0  0  0  0  0  0  0
   -5.2590   -0.6756   -1.2329 C   0  0  0  0  0  0  0  0  0  0  0  0
   -5.6720    0.5424   -2.0603 C   0  0  0  0  0  0  0  0  0  0  0  0
   -4.8696    0.6914   -3.3474 C   0  0  0  0  0  0  0  0  0  0  0  0
   -5.3848    1.7803   -4.1046 O   0  0  0  0  0  0  0  0  0  0  0  0
   -2.8166   -1.3239   -1.2059 C   0  0  0  0  0  0  0  0  0  0  0  0
   -1.5237   -1.2135   -0.6885 C   0  0  0  0  0  0  0  0  0  0  0  0
   -1.2675   -0.3658    0.3902 C   0  0  0  0  0  0  0  0  0  0  0  0
    0.0238   -0.1928    0.8923 N   0  0  0  0  0  0  0  0  0  0  0  0
    2.8405    0.1756    1.9066 C   0  0  0  0  0  0  0  0  0  0  0  0
    3.2315   -0.2756    0.6215 C   0  0  0  0  0  0  0  0  0  0  0  0
  1  2  1  0
  2  3  1  0
  3  4  2  0
  3  5  1  0
  5  6  1  0
  6  7  2  0
  7  8  1  0
  8  9  2  0
  9 10  1  0
 10 11  1  0
 11 12  1  0
 11 13  2  0
 13 14  1  0
 14 15  2  0
 15 16  1  0
 16 17  1  0
 17 18  2  0
 18 19  1  0
 19 20  1  0
 20 21  1  0
 21 22  1  0
 22 23  1  0
 19 24  2  0
 24 25  1  0
 25 26  2  0
 26 27  1  0
 13 28  1  0
 28 29  2  0
 29  6  1  0
 28  9  1  0
 27 14  1  0
 26 17  1  0
M  END
>  <energy>  (355) 
-45.77

>  <full_id>  (355) 
MOL00014576-003129-02_1

>  <mol_id>  (355) 
MOL00014576-003129-02

>  <act_mol>  (355) 
0

>  <act_conf>  (355) 
0

$$$$
MOL00014568-000623-03
     RDKit          3D

 33 36  0  0  0  0  0  0  0  0999 V2000
   -3.1483    1.7577   -3.7421 C   0  0  0  0  0  0  0  0  0  0  0  0
   -2.5727    0.6325   -3.0141 N   0  0  0  0  0  0  0  0  0  0  0  0
   -3.0339    0.6251   -1.6169 C   0  0  0  0  0  0  0  0  0  0  0  0
   -2.4663   -0.5542   -0.8591 C   0  0  0  0  0  0  0  0  0  0  0  0
   -3.2867   -1.5662   -0.3211 C   0  0  0  0  0  0  0  0  0  0  0  0
   -4.8024   -1.5532   -0.4517 C   0  0  0  0  0  0  0  0  0  0  0  0
   -5.4617   -0.4786    0.3207 N   0  0  0  0  0  0  0  0  0  0  0  0
   -6.9071   -0.4395    0.0088 C   0  0  0  0  0  0  0  0  0  0  0  0
   -7.6322    0.6227    0.8511 C   0  0  0  0  0  0  0  0  0  0  0  0
   -7.4595    0.3737    2.2517 O   0  0  0  0  0  0  0  0  0  0  0  0
   -6.0663    0.3731    2.5847 C   0  0  0  0  0  0  0  0  0  0  0  0
   -5.3021   -0.6911    1.7803 C   0  0  0  0  0  0  0  0  0  0  0  0
   -2.8067   -2.6232    0.3909 N   0  0  0  0  0  0  0  0  0  0  0  0
   -1.5238   -2.7482    0.6394 N   0  0  0  0  0  0  0  0  0  0  0  0
   -0.6965   -1.8036    0.1620 C   0  0  0  0  0  0  0  0  0  0  0  0
    0.9692   -1.8820    0.4746 S   0  0  0  0  0  0  0  0  0  0  0  0
    1.2754   -0.4451   -0.4108 C   0  0  0  0  0  0  0  0  0  0  0  0
    2.6318    0.0897   -0.5627 C   0  0  0  0  0  0  0  0  0  0  0  0
    2.8639    1.0592   -1.2831 O   0  0  0  0  0  0  0  0  0  0  0  0
    3.6091   -0.5930    0.1494 N   0  0  0  0  0  0  0  0  0  0  0  0
    4.9845   -0.3068    0.2451 C   0  0  0  0  0  0  0  0  0  0  0  0
    5.5913    0.8211   -0.3149 C   0  0  0  0  0  0  0  0  0  0  0  0
    6.9662    1.0354   -0.1700 C   0  0  0  0  0  0  0  0  0  0  0  0
    7.7408    0.1070    0.5275 C   0  0  0  0  0  0  0  0  0  0  0  0
    9.4882    0.3822    0.6922 S   0  0  0  0  0  6  0  0  0  0  0  0
   10.1127    0.0426   -0.9336 C   0  0  0  0  0  0  0  0  0  0  0  0
   10.0141   -0.6322    1.5858 O   0  0  0  0  0  0  0  0  0  0  0  0
    9.6756    1.7925    0.9702 O   0  0  0  0  0  0  0  0  0  0  0  0
    7.1503   -1.0148    1.1067 C   0  0  0  0  0  0  0  0  0  0  0  0
    5.7746   -1.2158    0.9648 C   0  0  0  0  0  0  0  0  0  0  0  0
    0.0968    0.0603   -0.9351 C   0  0  0  0  0  0  0  0  0  0  0  0
    0.0469    1.1725   -1.7107 N   0  0  0  0  0  0  0  0  0  0  0  0
   -1.0756   -0.7059   -0.5914 C   0  0  0  0  0  0  0  0  0  0  0  0
  1  2  1  0
  2  3  1  0
  3  4  1  0
  4  5  2  0
  5  6  1  0
  6  7  1  0
  7  8  1  0
  8  9  1  0
  9 10  1  0
 10 11  1  0
 11 12  1  0
  5 13  1  0
 13 14  2  0
 14 15  1  0
 15 16  1  0
 16 17  1  0
 17 18  1  0
 18 19  2  0
 18 20  1  0
 20 21  1  0
 21 22  2  0
 22 23  1  0
 23 24  2  0
 24 25  1  0
 25 26  1  0
 25 27  2  0
 25 28  2  0
 24 29  1  0
 29 30  2  0
 17 31  2  0
 31 32  1  0
 31 33  1  0
 33  4  1  0
 12  7  1  0
 33 15  2  0
 30 21  1  0
M  END
>  <energy>  (356) 
123.26

>  <full_id>  (356) 
MOL00014568-000623-03_1

>  <mol_id>  (356) 
MOL00014568-000623-03

>  <act_mol>  (356) 
0

>  <act_conf>  (356) 
0

$$$$
MOL00014571-000829-04
     RDKit          3D

 35 37  0  0  0  0  0  0  0  0999 V2000
   -7.2769    0.2230    0.1904 C   0  0  0  0  0  0  0  0  0  0  0  0
   -6.5853   -0.2880    1.4451 C   0  0  0  0  0  0  0  0  0  0  0  0
   -5.0868   -0.3216    1.2923 C   0  0  0  0  0  0  0  0  0  0  0  0
   -4.3189    0.7796    1.6839 C   0  0  0  0  0  0  0  0  0  0  0  0
   -2.9226    0.7672    1.5516 C   0  0  0  0  0  0  0  0  0  0  0  0
   -2.2485   -0.3365    1.0197 C   0  0  0  0  0  0  0  0  0  0  0  0
   -0.8578   -0.4153    0.8925 N   0  0  0  0  0  0  0  0  0  0  0  0
    0.1966    0.4243    1.2418 C   0  0  0  0  0  0  0  0  0  0  0  0
    0.0095    1.5501    1.9323 N   0  0  0  0  0  0  0  0  0  0  0  0
    1.0901    2.2690    2.2529 C   0  0  0  0  0  0  0  0  0  0  0  0
    0.8250    3.4705    2.9091 N   0  0  0  0  0  0  0  0  0  0  0  0
    2.3735    1.9050    1.8948 C   0  0  0  0  0  0  0  0  0  0  0  0
    3.5638    2.7248    2.2758 C   0  0  0  0  0  0  0  0  0  0  0  0
    3.4196    3.3773    3.4710 F   0  0  0  0  0  0  0  0  0  0  0  0
    2.4772    0.7569    1.1253 C   0  0  0  0  0  0  0  0  0  0  0  0
    3.7416    0.3383    0.6678 N   0  0  0  0  0  0  0  0  0  0  0  0
    3.7624   -0.8269   -0.2190 C   0  0  2  0  0  0  0  0  0  0  0  0
    5.2069   -1.2843   -0.4613 C   0  0  0  0  0  0  0  0  0  0  0  0
    5.2273   -1.8953   -1.8627 C   0  0  0  0  0  0  0  0  0  0  0  0
    3.8138   -1.7441   -2.4198 C   0  0  0  0  0  0  0  0  0  0  0  0
    3.2040   -0.5868   -1.6292 C   0  0  2  0  0  0  0  0  0  0  0  0
    3.5844    0.7577   -2.2443 C   0  0  0  0  0  0  0  0  0  0  0  0
    4.3545    1.5518   -1.7084 O   0  0  0  0  0  0  0  0  0  0  0  0
    2.9756    0.9992   -3.4604 N   0  0  0  0  0  0  0  0  0  0  0  0
    3.1006    2.2842   -4.1341 C   0  0  0  0  0  0  0  0  0  0  0  0
    2.1553    3.3120   -3.5142 C   0  0  0  0  0  0  0  0  0  0  0  0
    2.8199    2.1205   -5.6243 C   0  0  0  0  0  0  0  0  0  0  0  0
    1.4012    0.0080    0.8296 N   0  0  0  0  0  0  0  0  0  0  0  0
   -3.0202   -1.4400    0.6279 C   0  0  0  0  0  0  0  0  0  0  0  0
   -4.4157   -1.4175    0.7420 C   0  0  0  0  0  0  0  0  0  0  0  0
   -5.1556   -2.5551    0.3842 O   0  0  0  0  0  0  0  0  0  0  0  0
   -5.1826   -2.8445   -0.9711 C   0  0  0  0  0  0  0  0  0  0  0  0
   -4.6147   -2.2225   -1.8588 O   0  0  0  0  0  0  0  0  0  0  0  0
   -5.9470   -3.9603   -1.1733 N   0  0  0  0  0  0  0  0  0  0  0  0
   -6.0824   -4.5691   -2.4678 C   0  0  0  0  0  0  0  0  0  0  0  0
  1  2  1  0
  2  3  1  0
  3  4  2  0
  4  5  1  0
  5  6  2  0
  6  7  1  0
  7  8  1  0
  8  9  2  0
  9 10  1  0
 10 11  1  0
 10 12  2  0
 12 13  1  0
 13 14  1  0
 12 15  1  0
 15 16  1  0
 17 16  1  1
 17 18  1  0
 18 19  1  0
 19 20  1  0
 20 21  1  0
 21 22  1  6
 22 23  2  0
 22 24  1  0
 24 25  1  0
 25 26  1  0
 25 27  1  0
 15 28  2  0
  6 29  1  0
 29 30  2  0
 30 31  1  0
 31 32  1  0
 32 33  2  0
 32 34  1  0
 34 35  1  0
 30  3  1  0
 28  8  1  0
 21 17  1  0
M  END
>  <energy>  (357) 
-178.42

>  <full_id>  (357) 
MOL00014571-000829-04_1

>  <mol_id>  (357) 
MOL00014571-000829-04

>  <act_mol>  (357) 
0

>  <act_conf>  (357) 
0

$$$$
MOL00014770-000064-00
     RDKit          3D

 24 27  0  0  0  0  0  0  0  0999 V2000
    7.6673   -0.0053    1.9794 C   0  0  0  0  0  0  0  0  0  0  0  0
    7.2618   -0.0679    0.6175 O   0  0  0  0  0  0  0  0  0  0  0  0
    5.9167   -0.0868    0.3758 C   0  0  0  0  0  0  0  0  0  0  0  0
    4.9076   -0.0652    1.3360 C   0  0  0  0  0  0  0  0  0  0  0  0
    3.5592   -0.0890    0.9498 C   0  0  0  0  0  0  0  0  0  0  0  0
    3.2038   -0.1306   -0.3987 C   0  0  0  0  0  0  0  0  0  0  0  0
    1.8739   -0.1644   -0.8677 N   0  0  0  0  0  0  0  0  0  0  0  0
    0.7059   -0.0329   -0.1251 C   0  0  0  0  0  0  0  0  0  0  0  0
    0.6686    0.2093    1.0734 O   0  0  0  0  0  0  0  0  0  0  0  0
   -0.3948   -0.2156   -0.9382 N   0  0  0  0  0  0  0  0  0  0  0  0
   -1.7151   -0.0939   -0.5865 C   0  0  0  0  0  0  0  0  0  0  0  0
   -2.6591   -0.4611   -1.4194 N   0  0  0  0  0  0  0  0  0  0  0  0
   -3.9027   -0.2266   -0.8535 C   0  0  0  0  0  0  0  0  0  0  0  0
   -5.1463   -0.5115   -1.4591 C   0  0  0  0  0  0  0  0  0  0  0  0
   -6.2847   -0.2054   -0.7379 C   0  0  0  0  0  0  0  0  0  0  0  0
   -6.2330    0.3528    0.5145 C   0  0  0  0  0  0  0  0  0  0  0  0
   -5.0426    0.6510    1.1491 C   0  0  0  0  0  0  0  0  0  0  0  0
   -3.8733    0.3449    0.4283 C   0  0  0  0  0  0  0  0  0  0  0  0
   -2.2301    0.5748    0.8878 S   0  0  0  0  0  0  0  0  0  0  0  0
   -7.4719    0.5693    1.0363 O   0  0  0  0  0  0  0  0  0  0  0  0
   -8.3093    0.0814   -0.0317 C   0  0  0  0  0  0  0  0  0  0  0  0
   -7.5617   -0.4107   -1.1626 O   0  0  0  0  0  0  0  0  0  0  0  0
    4.2209   -0.1583   -1.3591 C   0  0  0  0  0  0  0  0  0  0  0  0
    5.5648   -0.1349   -0.9729 C   0  0  0  0  0  0  0  0  0  0  0  0
  1  2  1  0
  2  3  1  0
  3  4  2  0
  4  5  1  0
  5  6  2  0
  6  7  1  0
  7  8  1  0
  8  9  2  0
  8 10  1  0
 10 11  1  0
 11 12  2  0
 12 13  1  0
 13 14  2  0
 14 15  1  0
 15 16  2  0
 16 17  1  0
 17 18  2  0
 18 19  1  0
 16 20  1  0
 20 21  1  0
 21 22  1  0
  6 23  1  0
 23 24  2  0
 24  3  1  0
 19 11  1  0
 18 13  1  0
 22 15  1  0
M  END
>  <energy>  (358) 
-49.74

>  <full_id>  (358) 
MOL00014770-000064-00_1

>  <mol_id>  (358) 
MOL00014770-000064-00

>  <act_mol>  (358) 
0

>  <act_conf>  (358) 
0

$$$$
MOL00014819-000474-02
     RDKit          3D

 24 25  0  0  0  0  0  0  0  0999 V2000
    4.6192   -2.8873   -1.5517 C   0  0  0  0  0  0  0  0  0  0  0  0
    3.6433   -1.8736   -1.3074 O   0  0  0  0  0  0  0  0  0  0  0  0
    4.0626   -0.6180   -1.5822 C   0  0  0  0  0  0  0  0  0  0  0  0
    5.1668   -0.3020   -2.0060 O   0  0  0  0  0  0  0  0  0  0  0  0
    3.0077    0.3927   -1.3086 C   0  0  0  0  0  0  0  0  0  0  0  0
    1.7397    0.0252   -0.8231 C   0  0  0  0  0  0  0  0  0  0  0  0
    0.7496    0.9872   -0.5675 C   0  0  0  0  0  0  0  0  0  0  0  0
   -0.5357    0.6417   -0.0774 N   0  0  0  0  0  0  0  0  0  0  0  0
   -1.0484   -0.6091    0.2133 C   0  0  0  0  0  0  0  0  0  0  0  0
   -0.4465   -1.6698    0.0801 O   0  0  0  0  0  0  0  0  0  0  0  0
   -2.4619   -0.6417    0.7290 C   0  0  0  0  0  0  0  0  0  0  0  0
   -2.9920   -1.8981    1.0743 C   0  0  0  0  0  0  0  0  0  0  0  0
   -4.3070   -2.0359    1.5284 C   0  0  0  0  0  0  0  0  0  0  0  0
   -4.7705   -3.2756    1.9793 N   0  0  0  0  0  0  0  0  0  0  0  0
   -5.0691   -0.8851    1.7341 C   0  0  0  0  0  0  0  0  0  0  0  0
   -4.5666    0.3742    1.4007 C   0  0  0  0  0  0  0  0  0  0  0  0
   -3.2723    0.4923    0.8932 C   0  0  0  0  0  0  0  0  0  0  0  0
   -2.8011    1.7377    0.5718 O   0  0  0  0  0  0  0  0  0  0  0  0
    1.0528    2.3454   -0.8078 C   0  0  0  0  0  0  0  0  0  0  0  0
    0.0952    3.3885   -0.5711 C   0  0  0  0  0  0  0  0  0  0  0  0
   -0.6959    4.2148   -0.3722 N   0  0  0  0  0  0  0  0  0  0  0  0
    2.3148    2.7153   -1.2915 C   0  0  0  0  0  0  0  0  0  0  0  0
    3.2817    1.7460   -1.5391 C   0  0  0  0  0  0  0  0  0  0  0  0
    4.4808    2.2100   -2.0099 O   0  0  0  0  0  0  0  0  0  0  0  0
  1  2  1  0
  2  3  1  0
  3  4  2  0
  3  5  1  0
  5  6  2  0
  6  7  1  0
  7  8  1  0
  8  9  1  0
  9 10  2  0
  9 11  1  0
 11 12  2  0
 12 13  1  0
 13 14  1  0
 13 15  2  0
 15 16  1  0
 16 17  2  0
 17 18  1  0
  7 19  2  0
 19 20  1  0
 20 21  3  0
 19 22  1  0
 22 23  2  0
 23 24  1  0
 23  5  1  0
 17 11  1  0
M  END
>  <energy>  (359) 
33.55

>  <full_id>  (359) 
MOL00014819-000474-02_1

>  <mol_id>  (359) 
MOL00014819-000474-02

>  <act_mol>  (359) 
0

>  <act_conf>  (359) 
0

$$$$
MOL00014969-000425-03
     RDKit          3D

 25 27  0  0  0  0  0  0  0  0999 V2000
    7.4394    0.2441   -0.6781 C   0  0  0  0  0  0  0  0  0  0  0  0
    6.6779    0.7457    0.5189 C   0  0  0  0  0  0  0  0  0  0  0  0
    7.2404    1.2426    1.4889 O   0  0  0  0  0  0  0  0  0  0  0  0
    5.3171    0.5868    0.4286 N   0  0  0  0  0  0  0  0  0  0  0  0
    4.4624    0.9273    1.5412 C   0  0  0  0  0  0  0  0  0  0  0  0
    3.0140    0.8366    1.1451 C   0  0  0  0  0  0  0  0  0  0  0  0
    2.2788   -0.3305    1.3829 C   0  0  0  0  0  0  0  0  0  0  0  0
    0.9391   -0.4260    0.9867 C   0  0  0  0  0  0  0  0  0  0  0  0
    0.3138    0.6401    0.3404 C   0  0  0  0  0  0  0  0  0  0  0  0
   -1.0269    0.6318   -0.0914 N   0  0  0  0  0  0  0  0  0  0  0  0
   -1.9651   -0.3843    0.0175 C   0  0  0  0  0  0  0  0  0  0  0  0
   -1.7370   -1.4804    0.5268 O   0  0  0  0  0  0  0  0  0  0  0  0
   -3.2150   -0.0436   -0.5165 N   0  0  0  0  0  0  0  0  0  0  0  0
   -3.5974    1.1820   -1.1409 C   0  0  0  0  0  0  0  0  0  0  0  0
   -2.8992    2.1688   -1.3253 O   0  0  0  0  0  0  0  0  0  0  0  0
   -4.9405    1.0595   -1.5168 N   0  0  0  0  0  0  0  0  0  0  0  0
   -5.3984   -0.1962   -1.1474 C   0  0  0  0  0  0  0  0  0  0  0  0
   -6.6531   -0.7333   -1.3254 C   0  0  0  0  0  0  0  0  0  0  0  0
   -6.8417   -2.0290   -0.8541 C   0  0  0  0  0  0  0  0  0  0  0  0
   -8.0414   -2.6072   -0.9980 F   0  0  0  0  0  0  0  0  0  0  0  0
   -5.8085   -2.7481   -0.2312 C   0  0  0  0  0  0  0  0  0  0  0  0
   -4.5410   -2.1759   -0.0634 C   0  0  0  0  0  0  0  0  0  0  0  0
   -4.3512   -0.8886   -0.5313 C   0  0  0  0  0  0  0  0  0  0  0  0
    1.0513    1.8048    0.0943 C   0  0  0  0  0  0  0  0  0  0  0  0
    2.3893    1.9022    0.4881 C   0  0  0  0  0  0  0  0  0  0  0  0
  1  2  1  0
  2  3  2  0
  2  4  1  0
  4  5  1  0
  5  6  1  0
  6  7  2  0
  7  8  1  0
  8  9  2  0
  9 10  1  0
 10 11  1  0
 11 12  2  0
 11 13  1  0
 13 14  1  0
 14 15  2  0
 14 16  1  0
 16 17  1  0
 17 18  2  0
 18 19  1  0
 19 20  1  0
 19 21  2  0
 21 22  1  0
 22 23  2  0
  9 24  1  0
 24 25  2  0
 25  6  1  0
 23 13  1  0
 23 17  1  0
M  END
>  <energy>  (360) 
-68.17

>  <full_id>  (360) 
MOL00014969-000425-03_1

>  <mol_id>  (360) 
MOL00014969-000425-03

>  <act_mol>  (360) 
0

>  <act_conf>  (360) 
0

$$$$
MOL00014861-001482-04
     RDKit          3D

 27 29  0  0  0  0  0  0  0  0999 V2000
    5.5896    1.6024    1.4890 C   0  0  0  0  0  0  0  0  0  0  0  0
    5.1427    0.8658    0.2124 C   0  0  0  0  0  0  0  0  0  0  0  0
    5.8989   -0.4752    0.1401 C   0  0  0  0  0  0  0  0  0  0  0  0
    5.5245    1.7043   -1.0217 C   0  0  0  0  0  0  0  0  0  0  0  0
    3.6467    0.6438    0.2379 C   0  0  0  0  0  0  0  0  0  0  0  0
    2.8610   -0.4884    0.1515 C   0  0  0  0  0  0  0  0  0  0  0  0
    1.5145   -0.0483    0.2227 C   0  0  0  0  0  0  0  0  0  0  0  0
    0.4959   -0.9294    0.1637 N   0  0  0  0  0  0  0  0  0  0  0  0
   -0.8489   -0.6474    0.1636 C   0  0  0  0  0  0  0  0  0  0  0  0
   -1.6284   -1.6872    0.1737 N   0  0  0  0  0  0  0  0  0  0  0  0
   -3.0870   -1.5806    0.1554 C   0  0  0  0  0  0  0  0  0  0  0  0
   -3.6433   -2.6476    1.1073 C   0  0  0  0  0  0  0  0  0  0  0  0
   -5.1673   -2.7131    1.0500 C   0  0  0  0  0  0  0  0  0  0  0  0
   -5.6675   -2.9292   -0.3755 C   0  0  0  0  0  0  0  0  0  0  0  0
   -5.1075   -1.8824   -1.3345 C   0  0  0  0  0  0  0  0  0  0  0  0
   -3.5836   -1.8238   -1.2740 C   0  0  0  0  0  0  0  0  0  0  0  0
   -1.3609    0.7410    0.1615 C   0  0  0  0  0  0  0  0  0  0  0  0
   -1.6678    1.3561    1.3803 C   0  0  0  0  0  0  0  0  0  0  0  0
   -2.1489    2.6633    1.3708 C   0  0  0  0  0  0  0  0  0  0  0  0
   -2.5693    3.5031    3.0154 Br  0  0  0  0  0  0  0  0  0  0  0  0
   -2.3187    3.3404    0.1569 C   0  0  0  0  0  0  0  0  0  0  0  0
   -2.7933    4.6221    0.0983 O   0  0  0  0  0  0  0  0  0  0  0  0
   -2.0105    2.7233   -1.0525 C   0  0  0  0  0  0  0  0  0  0  0  0
   -1.5286    1.4189   -1.0452 C   0  0  0  0  0  0  0  0  0  0  0  0
   -1.2438    0.8250   -2.2134 F   0  0  0  0  0  0  0  0  0  0  0  0
    1.4676    1.2777    0.3610 N   0  0  0  0  0  0  0  0  0  0  0  0
    2.7469    1.6705    0.3502 N   0  0  0  0  0  0  0  0  0  0  0  0
  2  1  1  0
  2  3  1  0
  2  4  1  0
  2  5  1  0
  5  6  2  0
  6  7  1  0
  7  8  1  0
  8  9  1  0
  9 10  2  0
 11 10  1  0
 11 12  1  0
 12 13  1  0
 13 14  1  0
 14 15  1  0
 15 16  1  0
  9 17  1  0
 17 18  2  0
 18 19  1  0
 19 20  1  0
 19 21  2  0
 21 22  1  0
 21 23  1  0
 23 24  2  0
 24 25  1  0
  7 26  2  0
 26 27  1  0
 27  5  1  0
 16 11  1  0
 24 17  1  0
M  END
>  <energy>  (361) 
-0.90

>  <full_id>  (361) 
MOL00014861-001482-04_1

>  <mol_id>  (361) 
MOL00014861-001482-04

>  <act_mol>  (361) 
0

>  <act_conf>  (361) 
0

$$$$
MOL00014707-000666-02
     RDKit          3D

 27 29  0  0  0  0  0  0  0  0999 V2000
    8.8201   -0.2958    0.0796 C   0  0  0  0  0  0  0  0  0  0  0  0
    7.3944   -0.0113    0.1453 N   0  0  0  0  0  0  0  0  0  0  0  0
    6.6533   -0.8145   -0.8256 C   0  0  0  0  0  0  0  0  0  0  0  0
    5.1712   -0.5461   -0.7201 C   0  0  0  0  0  0  0  0  0  0  0  0
    4.2933   -1.5288   -0.2498 C   0  0  0  0  0  0  0  0  0  0  0  0
    2.9188   -1.2756   -0.1495 C   0  0  0  0  0  0  0  0  0  0  0  0
    2.3900   -0.0344   -0.5132 C   0  0  0  0  0  0  0  0  0  0  0  0
    1.0109    0.2726   -0.4314 N   0  0  0  0  0  0  0  0  0  0  0  0
   -0.0273   -0.5301   -0.0069 C   0  0  0  0  0  0  0  0  0  0  0  0
    0.0803   -1.6889    0.3849 O   0  0  0  0  0  0  0  0  0  0  0  0
   -1.3967    0.0832   -0.0321 C   0  0  0  0  0  0  0  0  0  0  0  0
   -2.4735   -0.7055    0.4020 C   0  0  0  0  0  0  0  0  0  0  0  0
   -3.7916   -0.2133    0.4420 C   0  0  0  0  0  0  0  0  0  0  0  0
   -4.8360   -1.0297    0.9178 C   0  0  0  0  0  0  0  0  0  0  0  0
   -6.1450   -0.5554    0.9918 C   0  0  0  0  0  0  0  0  0  0  0  0
   -7.2333   -1.2528    1.4368 O   0  0  0  0  0  0  0  0  0  0  0  0
   -7.0150   -2.5969    1.8477 C   0  0  0  0  0  0  0  0  0  0  0  0
   -6.4151    0.7491    0.5896 C   0  0  0  0  0  0  0  0  0  0  0  0
   -5.3931    1.5727    0.1103 C   0  0  0  0  0  0  0  0  0  0  0  0
   -4.0628    1.1103    0.0171 C   0  0  0  0  0  0  0  0  0  0  0  0
   -2.9894    1.8918   -0.4760 C   0  0  0  0  0  0  0  0  0  0  0  0
   -3.1222    3.2774   -0.8012 N   0  0  0  0  0  0  0  0  0  0  0  0
   -1.6751    1.3823   -0.4506 C   0  0  0  0  0  0  0  0  0  0  0  0
   -0.6880    2.2367   -0.8855 O   0  0  0  0  0  0  0  0  0  0  0  0
    3.2766    0.9535   -0.9808 C   0  0  0  0  0  0  0  0  0  0  0  0
    2.7105    2.5221   -1.4501 Cl  0  0  0  0  0  0  0  0  0  0  0  0
    4.6487    0.7018   -1.0825 C   0  0  0  0  0  0  0  0  0  0  0  0
  1  2  1  0
  2  3  1  0
  3  4  1  0
  4  5  2  0
  5  6  1  0
  6  7  2  0
  7  8  1  0
  8  9  1  0
  9 10  2  0
  9 11  1  0
 11 12  2  0
 12 13  1  0
 13 14  2  0
 14 15  1  0
 15 16  1  0
 16 17  1  0
 15 18  2  0
 18 19  1  0
 19 20  2  0
 20 21  1  0
 21 22  1  0
 21 23  2  0
 23 24  1  0
  7 25  1  0
 25 26  1  0
 25 27  2  0
 27  4  1  0
 23 11  1  0
 20 13  1  0
M  END
>  <energy>  (362) 
64.97

>  <full_id>  (362) 
MOL00014707-000666-02_1

>  <mol_id>  (362) 
MOL00014707-000666-02

>  <act_mol>  (362) 
0

>  <act_conf>  (362) 
0

$$$$
MOL00014867-001623-04
     RDKit          3D

 28 30  0  0  0  0  0  0  0  0999 V2000
    6.1709   -1.0042   -2.4668 C   0  0  0  0  0  0  0  0  0  0  0  0
    4.7237   -1.2613   -2.0746 C   0  0  0  0  0  0  0  0  0  0  0  0
    4.4605   -0.8900   -0.6833 N   0  0  0  0  0  0  0  0  0  0  0  0
    4.1619    0.5194   -0.4021 C   0  0  0  0  0  0  0  0  0  0  0  0
    2.6836    0.7830   -0.2568 C   0  0  0  0  0  0  0  0  0  0  0  0
    1.8795    0.9369   -1.3937 C   0  0  0  0  0  0  0  0  0  0  0  0
    0.5163    1.1717   -1.2562 C   0  0  0  0  0  0  0  0  0  0  0  0
   -0.0165    1.2583    0.0241 C   0  0  0  0  0  0  0  0  0  0  0  0
   -1.5012    1.4721    0.2202 C   0  0  0  0  0  0  0  0  0  0  0  0
   -2.2036    0.2098    0.0859 N   0  0  0  0  0  0  0  0  0  0  0  0
   -3.5802    0.1451    0.1327 C   0  0  0  0  0  0  0  0  0  0  0  0
   -4.3349    1.1687   -0.1615 N   0  0  0  0  0  0  0  0  0  0  0  0
   -5.7296    1.0078   -0.0977 C   0  0  0  0  0  0  0  0  0  0  0  0
   -6.5544    2.0856   -0.4084 C   0  0  0  0  0  0  0  0  0  0  0  0
   -7.9382    1.9339   -0.3498 C   0  0  0  0  0  0  0  0  0  0  0  0
   -8.4411    0.6971    0.0209 C   0  0  0  0  0  0  0  0  0  0  0  0
  -10.1324    0.4318    0.1172 Cl  0  0  0  0  0  0  0  0  0  0  0  0
   -7.6875   -0.3774    0.3300 N   0  0  0  0  0  0  0  0  0  0  0  0
   -6.3551   -0.1938    0.2619 C   0  0  0  0  0  0  0  0  0  0  0  0
   -5.5587   -1.2845    0.5784 N   0  0  0  0  0  0  0  0  0  0  0  0
   -4.1956   -1.2162    0.5570 C   0  0  0  0  0  0  0  0  0  0  0  0
   -3.4552   -2.1439    0.8567 O   0  0  0  0  0  0  0  0  0  0  0  0
    0.7405    1.0993    1.1379 N   0  0  0  0  0  0  0  0  0  0  0  0
    2.0595    0.8649    0.9894 C   0  0  0  0  0  0  0  0  0  0  0  0
    2.7754    0.7679    2.1786 N   0  0  0  0  0  0  0  0  0  0  0  0
    4.5751   -1.7634    0.3923 C   0  0  0  0  0  0  0  0  0  0  0  0
    4.9021   -3.2043    0.0891 C   0  0  0  0  0  0  0  0  0  0  0  0
    4.4051   -1.4073    1.5603 O   0  0  0  0  0  0  0  0  0  0  0  0
  1  2  1  0
  2  3  1  0
  3  4  1  0
  4  5  1  0
  5  6  2  0
  6  7  1  0
  7  8  2  0
  8  9  1  0
  9 10  1  0
 10 11  1  0
 11 12  2  0
 12 13  1  0
 13 14  2  0
 14 15  1  0
 15 16  2  0
 16 17  1  0
 16 18  1  0
 18 19  2  0
 19 20  1  0
 20 21  1  0
 21 22  2  0
  8 23  1  0
 23 24  2  0
 24 25  1  0
  3 26  1  0
 26 27  1  0
 26 28  2  0
 24  5  1  0
 21 11  1  0
 19 13  1  0
M  END
>  <energy>  (363) 
-15.87

>  <full_id>  (363) 
MOL00014867-001623-04_1

>  <mol_id>  (363) 
MOL00014867-001623-04

>  <act_mol>  (363) 
0

>  <act_conf>  (363) 
0

$$$$
MOL00014646-000381-03
     RDKit          3D

 30 32  0  0  0  0  0  0  0  0999 V2000
   -7.1854   -1.6528    1.4022 C   0  0  0  0  0  0  0  0  0  0  0  0
   -5.9194   -1.2992    2.1855 C   0  0  1  0  0  0  0  0  0  0  0  0
   -5.6822   -2.3065    3.2214 N   0  0  0  0  0  0  0  0  0  0  0  0
   -4.6928   -1.1423    1.3083 C   0  0  0  0  0  0  0  0  0  0  0  0
   -4.3334   -2.0933    0.3471 C   0  0  0  0  0  0  0  0  0  0  0  0
   -3.1781   -1.9254   -0.4267 C   0  0  0  0  0  0  0  0  0  0  0  0
   -2.3379   -0.8112   -0.2655 C   0  0  0  0  0  0  0  0  0  0  0  0
   -1.1970   -0.7165   -1.0759 N   0  0  0  0  0  0  0  0  0  0  0  0
   -0.1974    0.2392   -1.1170 C   0  0  0  0  0  0  0  0  0  0  0  0
   -0.1146    1.3014   -0.3727 N   0  0  0  0  0  0  0  0  0  0  0  0
    0.9545    2.1902   -0.5049 N   0  0  0  0  0  0  0  0  0  0  0  0
    1.8794    1.9723   -1.3817 C   0  0  0  0  0  0  0  0  0  0  0  0
    3.2265    3.0906   -1.4781 S   0  0  0  0  0  0  0  0  0  0  0  0
    3.6896    3.1625    0.2773 C   0  0  0  0  0  0  0  0  0  0  0  0
    4.1599    1.8348    0.8277 C   0  0  0  0  0  0  0  0  0  0  0  0
    3.2725    1.0729    1.6095 C   0  0  0  0  0  0  0  0  0  0  0  0
    3.6422   -0.1745    2.1172 C   0  0  0  0  0  0  0  0  0  0  0  0
    4.9174   -0.6921    1.8654 C   0  0  0  0  0  0  0  0  0  0  0  0
    5.3106   -2.0546    2.3875 C   0  0  0  0  0  0  0  0  0  0  0  0
    4.9522   -3.1338    1.4550 C   0  0  0  0  0  0  0  0  0  0  0  0
    4.6729   -3.9903    0.7229 N   0  0  0  0  0  0  0  0  0  0  0  0
    5.8096    0.0611    1.0887 C   0  0  0  0  0  0  0  0  0  0  0  0
    5.4377    1.3113    0.5783 C   0  0  0  0  0  0  0  0  0  0  0  0
    6.6105    2.1627   -0.3619 Cl  0  0  0  0  0  0  0  0  0  0  0  0
    1.8890    0.8955   -2.2410 N   0  0  0  0  0  0  0  0  0  0  0  0
    2.9214    0.6905   -3.2203 N   0  0  0  0  0  0  0  0  0  0  0  0
    0.8888   -0.0457   -2.1509 C   0  0  0  0  0  0  0  0  0  0  0  0
    0.8146   -1.0878   -2.7999 O   0  0  0  0  0  0  0  0  0  0  0  0
   -2.6992    0.1293    0.7007 C   0  0  0  0  0  0  0  0  0  0  0  0
   -3.8544   -0.0331    1.4786 C   0  0  0  0  0  0  0  0  0  0  0  0
  2  1  1  6
  2  3  1  0
  2  4  1  0
  4  5  2  0
  5  6  1  0
  6  7  2  0
  7  8  1  0
  8  9  1  0
  9 10  2  0
 10 11  1  0
 11 12  2  0
 12 13  1  0
 13 14  1  0
 14 15  1  0
 15 16  2  0
 16 17  1  0
 17 18  2  0
 18 19  1  0
 19 20  1  0
 20 21  3  0
 18 22  1  0
 22 23  2  0
 23 24  1  0
 12 25  1  0
 25 26  1  0
 25 27  1  0
 27 28  2  0
  7 29  1  0
 29 30  2  0
 30  4  1  0
 27  9  1  0
 23 15  1  0
M  END
>  <energy>  (364) 
149.81

>  <full_id>  (364) 
MOL00014646-000381-03_1

>  <mol_id>  (364) 
MOL00014646-000381-03

>  <act_mol>  (364) 
0

>  <act_conf>  (364) 
0

$$$$
MOL00014935-001443-03
     RDKit          3D

 32 35  0  0  0  0  0  0  0  0999 V2000
    4.0387    2.1377    1.5816 C   0  0  0  0  0  0  0  0  0  0  0  0
    2.5803    1.9749    1.9191 C   0  0  0  0  0  0  0  0  0  0  0  0
    2.1143    2.4755    3.1492 C   0  0  0  0  0  0  0  0  0  0  0  0
    0.7754    2.3628    3.5271 C   0  0  0  0  0  0  0  0  0  0  0  0
    0.3157    2.9954    4.6859 N   0  0  0  0  0  0  0  0  0  0  0  0
   -0.1278    1.8102    2.6223 C   0  0  0  0  0  0  0  0  0  0  0  0
    0.3169    1.2606    1.4091 C   0  0  0  0  0  0  0  0  0  0  0  0
   -0.6752    0.6336    0.4951 C   0  0  0  0  0  0  0  0  0  0  0  0
   -0.5573    0.7941   -0.7192 O   0  0  0  0  0  0  0  0  0  0  0  0
   -1.7861   -0.2146    1.0007 C   0  0  0  0  0  0  0  0  0  0  0  0
   -1.6570   -0.9903    2.1597 C   0  0  0  0  0  0  0  0  0  0  0  0
   -2.7135   -1.8016    2.5784 C   0  0  0  0  0  0  0  0  0  0  0  0
   -3.8938   -1.8496    1.8370 C   0  0  0  0  0  0  0  0  0  0  0  0
   -4.0197   -1.0932    0.6723 C   0  0  0  0  0  0  0  0  0  0  0  0
   -2.9666   -0.2803    0.2511 C   0  0  0  0  0  0  0  0  0  0  0  0
    1.6786    1.3480    1.0341 C   0  0  0  0  0  0  0  0  0  0  0  0
    2.1607    0.7838   -0.1767 N   0  0  0  0  0  0  0  0  0  0  0  0
    2.7725   -0.5483   -0.0122 C   0  0  0  0  0  0  0  0  0  0  0  0
    1.7503   -1.6691   -0.0971 C   0  0  0  0  0  0  0  0  0  0  0  0
    1.4058   -2.3419    0.9717 N   0  0  0  0  0  0  0  0  0  0  0  0
    0.4252   -3.1801    0.5417 N   0  0  0  0  0  0  0  0  0  0  0  0
    0.1780   -2.9907   -0.8120 C   0  0  0  0  0  0  0  0  0  0  0  0
   -0.9398   -3.9004   -1.6366 S   0  0  0  0  0  0  0  0  0  0  0  0
    1.0684   -2.0132   -1.2234 N   0  0  0  0  0  0  0  0  0  0  0  0
    1.2019   -1.4774   -2.5231 C   0  0  0  0  0  0  0  0  0  0  0  0
    2.4598   -1.3621   -3.1274 C   0  0  0  0  0  0  0  0  0  0  0  0
    2.5906   -0.8240   -4.4106 C   0  0  0  0  0  0  0  0  0  0  0  0
    1.4619   -0.3952   -5.1066 C   0  0  0  0  0  0  0  0  0  0  0  0
    0.1987   -0.5092   -4.5219 C   0  0  0  0  0  0  0  0  0  0  0  0
   -0.9651   -0.0635   -5.2310 C   0  0  0  0  0  0  0  0  0  0  0  0
   -1.9009    0.2938   -5.8174 N   0  0  0  0  0  0  0  0  0  0  0  0
    0.0728   -1.0539   -3.2384 C   0  0  0  0  0  0  0  0  0  0  0  0
  1  2  1  0
  2  3  2  0
  3  4  1  0
  4  5  1  0
  4  6  2  0
  6  7  1  0
  7  8  1  0
  8  9  2  0
  8 10  1  0
 10 11  2  0
 11 12  1  0
 12 13  2  0
 13 14  1  0
 14 15  2  0
  7 16  2  0
 16 17  1  0
 17 18  1  0
 18 19  1  0
 19 20  2  0
 20 21  1  0
 21 22  1  0
 22 23  2  0
 22 24  1  0
 24 25  1  0
 25 26  2  0
 26 27  1  0
 27 28  2  0
 28 29  1  0
 29 30  1  0
 30 31  3  0
 29 32  2  0
 16  2  1  0
 24 19  1  0
 32 25  1  0
 15 10  1  0
M  END
>  <energy>  (365) 
163.13

>  <full_id>  (365) 
MOL00014935-001443-03_1

>  <mol_id>  (365) 
MOL00014935-001443-03

>  <act_mol>  (365) 
0

>  <act_conf>  (365) 
0

$$$$
MOL00014965-000978-03
     RDKit          3D

 30 33  0  0  0  0  0  0  0  0999 V2000
    8.9594    0.5702   -0.9628 C   0  0  0  0  0  0  0  0  0  0  0  0
    7.5458    0.4790   -0.8328 O   0  0  0  0  0  0  0  0  0  0  0  0
    7.1103   -0.7781   -0.4613 C   0  0  0  0  0  0  0  0  0  0  0  0
    8.0212   -1.7621   -0.2454 N   0  0  0  0  0  0  0  0  0  0  0  0
    7.5044   -2.9558    0.1207 C   0  0  0  0  0  0  0  0  0  0  0  0
    6.1427   -3.1674    0.2651 C   0  0  0  0  0  0  0  0  0  0  0  0
    5.2266   -2.1968    0.0507 N   0  0  0  0  0  0  0  0  0  0  0  0
    5.7334   -0.9924   -0.3168 C   0  0  0  0  0  0  0  0  0  0  0  0
    4.8775    0.0672   -0.5440 O   0  0  0  0  0  0  0  0  0  0  0  0
    3.4822   -0.2329   -0.4433 C   0  0  1  0  0  0  0  0  0  0  0  0
    3.0144   -0.1119    1.0126 C   0  0  0  0  0  0  0  0  0  0  0  0
    1.5037   -0.2827    1.1322 C   0  0  0  0  0  0  0  0  0  0  0  0
    0.7471    0.7108    0.2433 C   0  0  2  0  0  0  0  0  0  0  0  0
   -0.6844    0.4608    0.3220 N   0  0  0  0  0  0  0  0  0  0  0  0
   -1.6122    1.4477    0.0586 C   0  0  0  0  0  0  0  0  0  0  0  0
   -1.2751    2.6106   -0.1430 O   0  0  0  0  0  0  0  0  0  0  0  0
   -2.9950    0.9926    0.0147 C   0  0  0  0  0  0  0  0  0  0  0  0
   -3.5407   -0.2171    0.4224 C   0  0  0  0  0  0  0  0  0  0  0  0
   -4.9371   -0.2021    0.1761 C   0  0  0  0  0  0  0  0  0  0  0  0
   -5.9669   -1.1438    0.3819 C   0  0  0  0  0  0  0  0  0  0  0  0
   -7.2891   -0.8314    0.0263 C   0  0  0  0  0  0  0  0  0  0  0  0
   -8.3860   -1.8319    0.2499 C   0  0  0  0  0  0  0  0  0  0  0  0
   -7.5640    0.4227   -0.5204 C   0  0  0  0  0  0  0  0  0  0  0  0
   -8.8600    0.7140   -0.8539 O   0  0  0  0  0  0  0  0  0  0  0  0
   -6.5636    1.3781   -0.7331 C   0  0  0  0  0  0  0  0  0  0  0  0
   -5.2455    1.0408   -0.3757 C   0  0  0  0  0  0  0  0  0  0  0  0
   -4.0602    1.7508   -0.4559 N   0  0  0  0  0  0  0  0  0  0  0  0
   -3.9344    3.1007   -0.9739 C   0  0  0  0  0  0  0  0  0  0  0  0
    1.2285    0.6310   -1.2120 C   0  0  0  0  0  0  0  0  0  0  0  0
    2.7417    0.7896   -1.3149 C   0  0  0  0  0  0  0  0  0  0  0  0
  1  2  1  0
  2  3  1  0
  3  4  2  0
  4  5  1  0
  5  6  2  0
  6  7  1  0
  7  8  2  0
  8  9  1  0
 10  9  1  1
 10 11  1  0
 11 12  1  0
 12 13  1  0
 13 14  1  6
 14 15  1  0
 15 16  2  0
 15 17  1  0
 17 18  2  0
 18 19  1  0
 19 20  2  0
 20 21  1  0
 21 22  1  0
 21 23  2  0
 23 24  1  0
 23 25  1  0
 25 26  2  0
 26 27  1  0
 27 28  1  0
 13 29  1  0
 29 30  1  0
  8  3  1  0
 30 10  1  0
 27 17  1  0
 26 19  1  0
M  END
>  <energy>  (366) 
45.53

>  <full_id>  (366) 
MOL00014965-000978-03_1

>  <mol_id>  (366) 
MOL00014965-000978-03

>  <act_mol>  (366) 
0

>  <act_conf>  (366) 
0

$$$$
MOL00015181-001107-04
     RDKit          3D

 24 26  0  0  0  0  0  0  0  0999 V2000
   -0.2989   -1.4378    2.0764 C   0  0  0  0  0  0  0  0  0  0  0  0
   -0.2213   -0.3945    0.9544 C   0  0  2  0  0  0  0  0  0  0  0  0
   -0.4424   -1.0487   -0.3472 N   0  0  0  0  0  0  0  0  0  0  0  0
   -1.7741   -1.2663   -0.6957 C   0  0  0  0  0  0  0  0  0  0  0  0
   -2.6854   -0.2265   -0.8425 C   0  0  0  0  0  0  0  0  0  0  0  0
   -4.0042   -0.5135   -1.2094 C   0  0  0  0  0  0  0  0  0  0  0  0
   -5.0065    0.5866   -1.4076 C   0  0  0  0  0  0  0  0  0  0  0  0
   -5.1169    0.9165   -2.7848 O   0  0  0  0  0  0  0  0  0  0  0  0
   -4.3536   -1.8428   -1.4407 C   0  0  0  0  0  0  0  0  0  0  0  0
   -3.3791   -2.8127   -1.2876 C   0  0  0  0  0  0  0  0  0  0  0  0
   -2.1046   -2.5495   -0.9247 N   0  0  0  0  0  0  0  0  0  0  0  0
    1.1353    0.2890    0.9462 C   0  0  0  0  0  0  0  0  0  0  0  0
    2.1414    0.0554    0.0797 C   0  0  0  0  0  0  0  0  0  0  0  0
    3.4135    0.7900    0.1476 C   0  0  0  0  0  0  0  0  0  0  0  0
    4.5076    0.5933   -0.7121 C   0  0  0  0  0  0  0  0  0  0  0  0
    4.4313   -0.6005   -1.9730 Cl  0  0  0  0  0  0  0  0  0  0  0  0
    5.6666    1.3609   -0.5492 C   0  0  0  0  0  0  0  0  0  0  0  0
    7.0634    1.2052   -1.5481 Cl  0  0  0  0  0  0  0  0  0  0  0  0
    5.6879    2.2960    0.4733 C   0  0  0  0  0  0  0  0  0  0  0  0
    4.6589    2.5116    1.3228 N   0  0  0  0  0  0  0  0  0  0  0  0
    3.5556    1.7605    1.1398 C   0  0  0  0  0  0  0  0  0  0  0  0
    2.5087    1.9971    2.0193 N   0  0  0  0  0  0  0  0  0  0  0  0
    1.3132    1.3445    1.9929 C   0  0  0  0  0  0  0  0  0  0  0  0
    0.4239    1.6131    2.7942 O   0  0  0  0  0  0  0  0  0  0  0  0
  2  1  1  1
  2  3  1  0
  3  4  1  0
  4  5  2  0
  5  6  1  0
  6  7  1  0
  7  8  1  0
  6  9  2  0
  9 10  1  0
 10 11  2  0
  2 12  1  0
 12 13  2  0
 13 14  1  0
 14 15  2  0
 15 16  1  0
 15 17  1  0
 17 18  1  0
 17 19  2  0
 19 20  1  0
 20 21  2  0
 21 22  1  0
 22 23  1  0
 23 24  2  0
 11  4  1  0
 23 12  1  0
 21 14  1  0
M  END
>  <energy>  (367) 
-53.29

>  <full_id>  (367) 
MOL00015181-001107-04_1

>  <mol_id>  (367) 
MOL00015181-001107-04

>  <act_mol>  (367) 
0

>  <act_conf>  (367) 
0

$$$$
MOL00014951-000872-04
     RDKit          3D

 34 36  0  0  0  0  0  0  0  0999 V2000
    8.3211   -3.9528   -3.3794 C   0  0  0  0  0  0  0  0  0  0  0  0
    6.8400   -3.7219   -3.2255 C   0  0  0  0  0  0  0  0  0  0  0  0
    6.0305   -4.6161   -3.4683 O   0  0  0  0  0  0  0  0  0  0  0  0
    6.4224   -2.3286   -2.7862 C   0  0  0  0  0  0  0  0  0  0  0  0
    4.9350   -2.2089   -2.4566 C   0  0  0  0  0  0  0  0  0  0  0  0
    4.5766   -2.8841   -1.1262 C   0  0  0  0  0  0  0  0  0  0  0  0
    3.0862   -2.7753   -0.8040 C   0  0  0  0  0  0  0  0  0  0  0  0
    2.6530   -1.3821   -0.3688 C   0  0  0  0  0  0  0  0  0  0  0  0
    3.4594   -0.4877   -0.1408 O   0  0  0  0  0  0  0  0  0  0  0  0
    1.2854   -1.2976   -0.2551 N   0  0  0  0  0  0  0  0  0  0  0  0
    0.5648   -0.1724    0.1246 C   0  0  0  0  0  0  0  0  0  0  0  0
    1.1715    0.9618    0.4199 N   0  0  0  0  0  0  0  0  0  0  0  0
    0.3868    1.9664    0.7720 C   0  0  0  0  0  0  0  0  0  0  0  0
    1.0583    3.1482    1.0776 N   0  0  0  0  0  0  0  0  0  0  0  0
    0.6537    4.4252    1.4796 C   0  0  0  0  0  0  0  0  0  0  0  0
    1.6427    5.4006    1.7063 C   0  0  0  0  0  0  0  0  0  0  0  0
    1.3137    6.6995    2.1103 C   0  0  0  0  0  0  0  0  0  0  0  0
   -0.0193    7.0467    2.2955 C   0  0  0  0  0  0  0  0  0  0  0  0
   -1.0025    6.0924    2.0747 C   0  0  0  0  0  0  0  0  0  0  0  0
   -2.2892    6.4227    2.2518 F   0  0  0  0  0  0  0  0  0  0  0  0
   -0.6790    4.7976    1.6723 C   0  0  0  0  0  0  0  0  0  0  0  0
   -0.9345    1.8713    0.8338 N   0  0  0  0  0  0  0  0  0  0  0  0
   -1.4653    0.6961    0.5164 C   0  0  0  0  0  0  0  0  0  0  0  0
   -2.8549    0.6432    0.6009 N   0  0  0  0  0  0  0  0  0  0  0  0
   -3.8177   -0.3358    0.3216 C   0  0  0  0  0  0  0  0  0  0  0  0
   -3.5194   -1.5929   -0.1958 C   0  0  0  0  0  0  0  0  0  0  0  0
   -4.5319   -2.5205   -0.4256 C   0  0  0  0  0  0  0  0  0  0  0  0
   -5.8627   -2.1995   -0.1420 C   0  0  0  0  0  0  0  0  0  0  0  0
   -6.2321   -0.9462    0.3686 C   0  0  0  0  0  0  0  0  0  0  0  0
   -7.5626   -0.6258    0.6715 N   0  0  0  0  0  0  0  0  0  0  0  0
   -7.9285    0.7787    0.8507 C   0  0  0  0  0  0  0  0  0  0  0  0
   -8.6315   -1.4977    0.1868 C   0  0  0  0  0  0  0  0  0  0  0  0
   -5.1720   -0.0446    0.6017 C   0  0  0  0  0  0  0  0  0  0  0  0
   -0.7458   -0.3567    0.1544 N   0  0  0  0  0  0  0  0  0  0  0  0
  1  2  1  0
  2  3  2  0
  2  4  1  0
  4  5  1  0
  5  6  1  0
  6  7  1  0
  7  8  1  0
  8  9  2  0
  8 10  1  0
 10 11  1  0
 11 12  2  0
 12 13  1  0
 13 14  1  0
 14 15  1  0
 15 16  2  0
 16 17  1  0
 17 18  2  0
 18 19  1  0
 19 20  1  0
 19 21  2  0
 13 22  2  0
 22 23  1  0
 23 24  1  0
 24 25  1  0
 25 26  2  0
 26 27  1  0
 27 28  2  0
 28 29  1  0
 29 30  1  0
 30 31  1  0
 30 32  1  0
 29 33  2  0
 23 34  2  0
 34 11  1  0
 21 15  1  0
 33 25  1  0
M  END
>  <energy>  (368) 
-223.48

>  <full_id>  (368) 
MOL00014951-000872-04_1

>  <mol_id>  (368) 
MOL00014951-000872-04

>  <act_mol>  (368) 
0

>  <act_conf>  (368) 
0

$$$$
MOL00014714-000965-02
     RDKit          3D

 33 36  0  0  0  0  0  0  0  0999 V2000
   -5.1225    2.8308   -0.3451 C   0  0  0  0  0  0  0  0  0  0  0  0
   -5.1082    1.3260   -0.7063 C   0  0  0  0  0  0  0  0  0  0  0  0
   -6.2384    0.6271    0.0819 C   0  0  0  0  0  0  0  0  0  0  0  0
   -5.3924    1.2386   -2.2223 C   0  0  0  0  0  0  0  0  0  0  0  0
   -5.1136   -0.1493   -2.7744 C   0  0  0  0  0  0  0  0  0  0  0  0
   -3.6276   -0.5447   -2.6236 C   0  0  0  0  0  0  0  0  0  0  0  0
   -2.7761    0.2009   -3.6757 C   0  0  0  0  0  0  0  0  0  0  0  0
   -3.5480   -2.0619   -2.9191 C   0  0  0  0  0  0  0  0  0  0  0  0
   -3.0907   -0.2045   -1.2257 C   0  0  0  0  0  0  0  0  0  0  0  0
   -1.8481   -0.7464   -0.8159 C   0  0  0  0  0  0  0  0  0  0  0  0
   -1.2898   -0.4911    0.4449 C   0  0  0  0  0  0  0  0  0  0  0  0
   -0.0107   -1.0829    0.8004 C   0  0  0  0  0  0  0  0  0  0  0  0
    0.6411   -1.0051    2.0130 C   0  0  0  0  0  0  0  0  0  0  0  0
    1.7858   -1.7155    1.8157 N   0  0  0  0  0  0  0  0  0  0  0  0
    2.8713   -1.9504    2.7378 C   0  0  0  0  0  0  0  0  0  0  0  0
    4.0331   -1.0074    2.5002 C   0  0  0  0  0  0  0  0  0  0  0  0
    4.5255   -0.3974    3.4474 O   0  0  0  0  0  0  0  0  0  0  0  0
    4.4815   -0.9726    1.1894 N   0  0  0  0  0  0  0  0  0  0  0  0
    5.5642   -0.2373    0.6647 C   0  0  0  0  0  0  0  0  0  0  0  0
    6.4264    0.5451    1.4359 C   0  0  0  0  0  0  0  0  0  0  0  0
    7.4831    1.2448    0.8369 C   0  0  0  0  0  0  0  0  0  0  0  0
    7.6908    1.1680   -0.5448 C   0  0  0  0  0  0  0  0  0  0  0  0
    8.7989    1.8973   -1.1989 C   0  0  0  0  0  0  0  0  0  0  0  0
    9.0229    1.8732   -2.3979 O   0  0  0  0  0  0  0  0  0  0  0  0
    9.5607    2.6050   -0.3493 O   0  0  0  0  0  0  0  0  0  0  0  0
    6.8276    0.3819   -1.3166 C   0  0  0  0  0  0  0  0  0  0  0  0
    6.9465    0.2395   -2.6748 O   0  0  0  0  0  0  0  0  0  0  0  0
    5.7750   -0.3139   -0.7177 C   0  0  0  0  0  0  0  0  0  0  0  0
    1.8520   -2.2148    0.5685 N   0  0  0  0  0  0  0  0  0  0  0  0
    0.7540   -1.8296   -0.0655 N   0  0  0  0  0  0  0  0  0  0  0  0
   -1.9943    0.3331    1.3191 C   0  0  0  0  0  0  0  0  0  0  0  0
   -3.2122    0.8979    0.9313 C   0  0  0  0  0  0  0  0  0  0  0  0
   -3.7721    0.6641   -0.3424 C   0  0  0  0  0  0  0  0  0  0  0  0
  2  1  1  0
  2  3  1  0
  2  4  1  0
  4  5  1  0
  5  6  1  0
  6  7  1  0
  6  8  1  0
  6  9  1  0
  9 10  2  0
 10 11  1  0
 11 12  1  0
 12 13  2  0
 13 14  1  0
 14 15  1  0
 15 16  1  0
 16 17  2  0
 16 18  1  0
 18 19  1  0
 19 20  2  0
 20 21  1  0
 21 22  2  0
 22 23  1  0
 23 24  2  0
 23 25  1  0
 22 26  1  0
 26 27  1  0
 26 28  2  0
 14 29  1  0
 29 30  2  0
 11 31  2  0
 31 32  1  0
 32 33  2  0
 33  2  1  0
 33  9  1  0
 30 12  1  0
 28 19  1  0
M  END
>  <energy>  (369) 
55.91

>  <full_id>  (369) 
MOL00014714-000965-02_1

>  <mol_id>  (369) 
MOL00014714-000965-02

>  <act_mol>  (369) 
0

>  <act_conf>  (369) 
0

$$$$
MOL00015096-001124-03
     RDKit          3D

 30 32  0  0  0  0  0  0  0  0999 V2000
   -4.7920   -1.7477   -0.1394 C   0  0  0  0  0  0  0  0  0  0  0  0
   -3.9614   -2.7352    0.6331 C   0  0  0  0  0  0  0  0  0  0  0  0
   -4.6238   -3.6044    1.5196 C   0  0  0  0  0  0  0  0  0  0  0  0
   -3.9218   -4.5670    2.2465 C   0  0  0  0  0  0  0  0  0  0  0  0
   -2.5438   -4.6790    2.1025 C   0  0  0  0  0  0  0  0  0  0  0  0
   -1.8656   -3.8174    1.2413 C   0  0  0  0  0  0  0  0  0  0  0  0
   -2.5586   -2.8316    0.5151 C   0  0  0  0  0  0  0  0  0  0  0  0
   -1.7358   -1.9349   -0.3576 C   0  0  0  0  0  0  0  0  0  0  0  0
   -0.6261   -2.3763   -0.8921 N   0  0  0  0  0  0  0  0  0  0  0  0
    0.0242   -1.5315   -1.7635 N   0  0  0  0  0  0  0  0  0  0  0  0
    0.9661   -0.6151   -1.2288 C   0  0  0  0  0  0  0  0  0  0  0  0
    1.6180   -0.8262   -0.0111 C   0  0  0  0  0  0  0  0  0  0  0  0
    2.5004    0.1313    0.5081 C   0  0  0  0  0  0  0  0  0  0  0  0
    2.7697    1.3197   -0.1889 C   0  0  0  0  0  0  0  0  0  0  0  0
    3.6872    2.4093    0.3636 C   0  0  0  0  0  0  0  0  0  0  0  0
    3.6948    2.5029    1.8952 C   0  0  0  0  0  0  0  0  0  0  0  0
    5.1133    2.2023   -0.1540 C   0  0  0  0  0  0  0  0  0  0  0  0
    3.2469    3.6905   -0.1074 O   0  0  0  0  0  0  0  0  0  0  0  0
    2.1901    1.4730   -1.4596 C   0  0  0  0  0  0  0  0  0  0  0  0
    1.3088    0.5179   -1.9739 C   0  0  0  0  0  0  0  0  0  0  0  0
   -2.1438   -0.6289   -0.5435 N   0  0  0  0  0  0  0  0  0  0  0  0
   -1.8832    0.0373    0.4875 N   0  0  0  0  0  0  0  0  0  0  0  0
   -1.9199    1.3848    0.2505 C   0  0  0  0  0  0  0  0  0  0  0  0
   -2.9939    1.9883   -0.1428 N   0  0  0  0  0  0  0  0  0  0  0  0
   -2.9276    3.3405   -0.3585 C   0  0  0  0  0  0  0  0  0  0  0  0
   -4.0715    3.9823   -0.7770 N   0  0  0  0  0  0  0  0  0  0  0  0
   -1.7992    4.0456   -0.1733 C   0  0  0  0  0  0  0  0  0  0  0  0
   -0.5853    3.3452    0.2602 C   0  0  0  0  0  0  0  0  0  0  0  0
    0.4878    3.9236    0.3938 O   0  0  0  0  0  0  0  0  0  0  0  0
   -0.7443    2.0219    0.4934 N   0  0  0  0  0  0  0  0  0  0  0  0
  1  2  1  0
  2  3  2  0
  3  4  1  0
  4  5  2  0
  5  6  1  0
  6  7  2  0
  7  8  1  0
  8  9  2  0
  9 10  1  0
 10 11  1  0
 11 12  2  0
 12 13  1  0
 13 14  2  0
 14 15  1  0
 15 16  1  0
 15 17  1  0
 15 18  1  0
 14 19  1  0
 19 20  2  0
  8 21  1  0
 21 22  2  0
 22 23  1  0
 23 24  2  0
 24 25  1  0
 25 26  1  0
 25 27  2  0
 27 28  1  0
 28 29  2  0
 28 30  1  0
  7  2  1  0
 20 11  1  0
 30 23  1  0
M  END
>  <energy>  (370) 
-12.08

>  <full_id>  (370) 
MOL00015096-001124-03_1

>  <mol_id>  (370) 
MOL00015096-001124-03

>  <act_mol>  (370) 
0

>  <act_conf>  (370) 
0

$$$$
MOL00014835-001072-02
     RDKit          3D

 37 40  0  0  0  0  0  0  0  0999 V2000
    8.9860   -0.5586   -0.4815 C   0  0  0  0  0  0  0  0  0  0  0  0
    7.6035   -0.6213   -1.0605 C   0  0  0  0  0  0  0  0  0  0  0  0
    6.5230   -0.0490   -0.3792 C   0  0  0  0  0  0  0  0  0  0  0  0
    5.2372   -0.0773   -0.9310 C   0  0  0  0  0  0  0  0  0  0  0  0
    5.0148   -0.6783   -2.1776 C   0  0  0  0  0  0  0  0  0  0  0  0
    3.6571   -0.7270   -2.7887 C   0  0  0  0  0  0  0  0  0  0  0  0
    3.5481   -0.9187   -3.9971 O   0  0  0  0  0  0  0  0  0  0  0  0
    2.5769   -0.5919   -1.9466 N   0  0  0  0  0  0  0  0  0  0  0  0
    1.2310   -0.7325   -2.4535 C   0  0  0  0  0  0  0  0  0  0  0  0
    0.2290   -0.3052   -1.4155 C   0  0  0  0  0  0  0  0  0  0  0  0
   -0.4478   -1.2529   -0.6398 C   0  0  0  0  0  0  0  0  0  0  0  0
   -1.3576   -0.8482    0.3403 C   0  0  0  0  0  0  0  0  0  0  0  0
   -1.6004    0.5135    0.5762 C   0  0  0  0  0  0  0  0  0  0  0  0
   -2.5991    0.9723    1.6302 C   0  0  1  0  0  0  0  0  0  0  0  0
   -3.9187    0.5354    1.2435 O   0  0  0  0  0  0  0  0  0  0  0  0
   -4.5624    1.3365    0.3695 C   0  0  0  0  0  0  0  0  0  0  0  0
   -4.1721    2.4166   -0.0435 O   0  0  0  0  0  0  0  0  0  0  0  0
   -5.8808    0.7786    0.0007 C   0  0  0  0  0  0  0  0  0  0  0  0
   -6.8422    1.6931   -0.4143 C   0  0  0  0  0  0  0  0  0  0  0  0
   -8.1033    1.3596   -0.7834 N   0  0  0  0  0  0  0  0  0  0  0  0
   -8.4279    0.0538   -0.7526 C   0  0  0  0  0  0  0  0  0  0  0  0
   -7.5428   -0.9369   -0.3708 C   0  0  0  0  0  0  0  0  0  0  0  0
   -6.2433   -0.5717    0.0085 C   0  0  0  0  0  0  0  0  0  0  0  0
   -5.3406   -1.6256    0.3621 C   0  0  0  0  0  0  0  0  0  0  0  0
   -4.6488   -2.5113    0.6493 N   0  0  0  0  0  0  0  0  0  0  0  0
   -2.2546    0.4605    3.0289 C   0  0  0  0  0  0  0  0  0  0  0  0
   -2.9356   -0.6163    3.6239 C   0  0  0  0  0  0  0  0  0  0  0  0
   -2.5774   -1.0695    4.8954 C   0  0  0  0  0  0  0  0  0  0  0  0
   -1.5349   -0.4545    5.5758 C   0  0  0  0  0  0  0  0  0  0  0  0
   -1.1902   -0.8953    6.7929 F   0  0  0  0  0  0  0  0  0  0  0  0
   -0.8410    0.6064    5.0098 C   0  0  0  0  0  0  0  0  0  0  0  0
   -1.1983    1.0629    3.7399 C   0  0  0  0  0  0  0  0  0  0  0  0
   -0.9206    1.4600   -0.2046 C   0  0  0  0  0  0  0  0  0  0  0  0
   -0.0129    1.0551   -1.1859 C   0  0  0  0  0  0  0  0  0  0  0  0
    6.1075   -1.2165   -2.8733 C   0  0  0  0  0  0  0  0  0  0  0  0
    5.9989   -1.7854   -4.1163 O   0  0  0  0  0  0  0  0  0  0  0  0
    7.3876   -1.1935   -2.3192 C   0  0  0  0  0  0  0  0  0  0  0  0
  1  2  1  0
  2  3  2  0
  3  4  1  0
  4  5  2  0
  5  6  1  0
  6  7  2  0
  6  8  1  0
  8  9  1  0
  9 10  1  0
 10 11  2  0
 11 12  1  0
 12 13  2  0
 13 14  1  0
 14 15  1  6
 15 16  1  0
 16 17  2  0
 16 18  1  0
 18 19  2  0
 19 20  1  0
 20 21  2  0
 21 22  1  0
 22 23  2  0
 23 24  1  0
 24 25  3  0
 14 26  1  0
 26 27  2  0
 27 28  1  0
 28 29  2  0
 29 30  1  0
 29 31  1  0
 31 32  2  0
 13 33  1  0
 33 34  2  0
  5 35  1  0
 35 36  1  0
 35 37  2  0
 37  2  1  0
 34 10  1  0
 23 18  1  0
 32 26  1  0
M  END
>  <energy>  (371) 
51.79

>  <full_id>  (371) 
MOL00014835-001072-02_1

>  <mol_id>  (371) 
MOL00014835-001072-02

>  <act_mol>  (371) 
0

>  <act_conf>  (371) 
0

$$$$
MOL00014815-001164-03
     RDKit          3D

 29 31  0  0  0  0  0  0  0  0999 V2000
   -7.0135    2.7731    1.2954 C   0  0  0  0  0  0  0  0  0  0  0  0
   -5.8623    1.8007    1.0519 C   0  0  2  0  0  0  0  0  0  0  0  0
   -5.9758    0.5815    1.9796 C   0  0  0  0  0  0  0  0  0  0  0  0
   -4.7829   -0.3622    1.7662 C   0  0  2  0  0  0  0  0  0  0  0  0
   -4.8620   -1.6294    2.6318 C   0  0  0  0  0  0  0  0  0  0  0  0
   -4.7577   -1.3685    4.0608 N   0  0  0  0  0  0  0  0  0  0  0  0
   -3.4671    0.4014    1.9819 C   0  0  0  0  0  0  0  0  0  0  0  0
   -3.3978    1.5354    1.0071 N   0  0  0  0  0  0  0  0  0  0  0  0
   -1.8710    2.3101    0.9224 S   0  0  0  0  0  6  0  0  0  0  0  0
   -1.4592    2.6264    2.2737 O   0  0  0  0  0  0  0  0  0  0  0  0
   -1.9226    3.3262   -0.1073 O   0  0  0  0  0  0  0  0  0  0  0  0
   -0.8033    1.0318    0.3054 C   0  0  0  0  0  0  0  0  0  0  0  0
   -1.0977    0.4308   -0.9189 C   0  0  0  0  0  0  0  0  0  0  0  0
   -0.2553   -0.5682   -1.4169 C   0  0  0  0  0  0  0  0  0  0  0  0
    0.8961   -0.9614   -0.7123 C   0  0  0  0  0  0  0  0  0  0  0  0
    1.7642   -1.9754   -1.2474 N   0  0  0  0  0  0  0  0  0  0  0  0
    1.1083   -3.1668   -1.7884 C   0  0  0  0  0  0  0  0  0  0  0  0
    3.0943   -2.1234   -0.8573 C   0  0  0  0  0  0  0  0  0  0  0  0
    3.6606   -3.2122   -0.7617 O   0  0  0  0  0  0  0  0  0  0  0  0
    3.8308   -0.9426   -0.6825 N   0  0  0  0  0  0  0  0  0  0  0  0
    3.7822    0.0735   -1.7411 C   0  0  0  0  0  0  0  0  0  0  0  0
    4.7791   -0.2711   -2.8662 C   0  0  0  0  0  0  0  0  0  0  0  0
    6.1908   -0.4896   -2.3181 N   0  0  0  0  0  4  0  0  0  0  0  0
    6.9170    0.7881   -2.0151 C   0  0  0  0  0  0  0  0  0  0  0  0
    6.2024   -1.4893   -1.1545 C   0  0  0  0  0  0  0  0  0  0  0  0
    5.1614   -1.1015   -0.0908 C   0  0  0  0  0  0  0  0  0  0  0  0
    1.1659   -0.3432    0.5202 C   0  0  0  0  0  0  0  0  0  0  0  0
    0.3232    0.6494    1.0304 C   0  0  0  0  0  0  0  0  0  0  0  0
   -4.5113    2.5046    1.2415 C   0  0  0  0  0  0  0  0  0  0  0  0
  2  1  1  1
  2  3  1  0
  3  4  1  0
  4  5  1  1
  5  6  1  0
  4  7  1  0
  7  8  1  0
  9  8  1  0
  9 10  2  0
  9 11  2  0
  9 12  1  0
 12 13  2  0
 13 14  1  0
 14 15  2  0
 15 16  1  0
 16 17  1  0
 16 18  1  0
 18 19  2  0
 18 20  1  0
 20 21  1  0
 21 22  1  0
 22 23  1  0
 23 24  1  0
 23 25  1  0
 25 26  1  0
 15 27  1  0
 27 28  2  0
  8 29  1  0
 29  2  1  0
 28 12  1  0
 26 20  1  0
M  CHG  1  23   1
M  END
>  <energy>  (372) 
14.10

>  <full_id>  (372) 
MOL00014815-001164-03_1

>  <mol_id>  (372) 
MOL00014815-001164-03

>  <act_mol>  (372) 
0

>  <act_conf>  (372) 
0

$$$$
MOL00014690-002723-02
     RDKit          3D

 35 39  0  0  0  0  0  0  0  0999 V2000
    7.7755   -4.1302   -1.3836 C   0  0  0  0  0  0  0  0  0  0  0  0
    6.4624   -3.5278   -0.9778 C   0  0  0  0  0  0  0  0  0  0  0  0
    5.3098   -4.3202   -0.9204 C   0  0  0  0  0  0  0  0  0  0  0  0
    4.0808   -3.7560   -0.5706 C   0  0  0  0  0  0  0  0  0  0  0  0
    3.9860   -2.3875   -0.2942 C   0  0  0  0  0  0  0  0  0  0  0  0
    2.6520   -1.8273    0.0694 C   0  0  0  0  0  0  0  0  0  0  0  0
    1.8582   -2.5501    0.6598 O   0  0  0  0  0  0  0  0  0  0  0  0
    2.4362   -0.5336   -0.3481 N   0  0  0  0  0  0  0  0  0  0  0  0
    1.2783    0.2147   -0.1011 C   0  0  0  0  0  0  0  0  0  0  0  0
    0.2652   -0.2323    0.6657 N   0  0  0  0  0  0  0  0  0  0  0  0
   -0.8163    0.5364    0.8538 C   0  0  0  0  0  0  0  0  0  0  0  0
   -1.7838   -0.0367    1.6614 N   0  0  0  0  0  0  0  0  0  0  0  0
   -3.1805    0.2303    1.3416 C   0  0  1  0  0  0  0  0  0  0  0  0
   -3.6193   -0.4763    0.0495 C   0  0  0  0  0  0  0  0  0  0  0  0
   -3.7044   -1.9966    0.1955 C   0  0  0  0  0  0  0  0  0  0  0  0
   -4.5991   -2.3964    1.3727 C   0  0  1  0  0  0  0  0  0  0  0  0
   -4.6141   -3.8511    1.5089 N   0  0  0  0  0  0  0  0  0  0  0  0
   -4.1343   -1.7365    2.6742 C   0  0  0  0  0  0  0  0  0  0  0  0
   -4.0500   -0.2154    2.5289 C   0  0  0  0  0  0  0  0  0  0  0  0
   -1.0097    1.7584    0.3342 N   0  0  0  0  0  0  0  0  0  0  0  0
    0.0175    2.1958   -0.4155 C   0  0  0  0  0  0  0  0  0  0  0  0
    1.1786    1.4869   -0.6721 C   0  0  0  0  0  0  0  0  0  0  0  0
    2.0374    2.1949   -1.4728 N   0  0  0  0  0  0  0  0  0  0  0  0
    1.4050    3.3259   -1.7016 C   0  0  0  0  0  0  0  0  0  0  0  0
    0.1621    3.4036   -1.0899 N   0  0  0  0  0  0  0  0  0  0  0  0
   -0.7492    4.5065   -1.1628 C   0  0  0  0  0  0  0  0  0  0  0  0
   -0.4298    5.6475   -1.9265 C   0  0  0  0  0  0  0  0  0  0  0  0
   -1.3154    6.7305   -2.0069 C   0  0  0  0  0  0  0  0  0  0  0  0
   -2.5211    6.6813   -1.3272 C   0  0  0  0  0  0  0  0  0  0  0  0
   -3.3705    7.7448   -1.4184 O   0  0  0  0  0  0  0  0  0  0  0  0
   -2.8466    5.5635   -0.5711 C   0  0  0  0  0  0  0  0  0  0  0  0
   -4.0189    5.5296    0.0790 F   0  0  0  0  0  0  0  0  0  0  0  0
   -1.9757    4.4798   -0.4819 C   0  0  0  0  0  0  0  0  0  0  0  0
    5.1368   -1.5911   -0.3468 C   0  0  0  0  0  0  0  0  0  0  0  0
    6.3654   -2.1593   -0.6968 C   0  0  0  0  0  0  0  0  0  0  0  0
  1  2  1  0
  2  3  2  0
  3  4  1  0
  4  5  2  0
  5  6  1  0
  6  7  2  0
  6  8  1  0
  8  9  1  0
  9 10  2  0
 10 11  1  0
 11 12  1  0
 13 12  1  1
 13 14  1  0
 14 15  1  0
 15 16  1  0
 16 17  1  1
 16 18  1  0
 18 19  1  0
 11 20  2  0
 20 21  1  0
 21 22  2  0
 22 23  1  0
 23 24  2  0
 24 25  1  0
 25 26  1  0
 26 27  2  0
 27 28  1  0
 28 29  2  0
 29 30  1  0
 29 31  1  0
 31 32  1  0
 31 33  2  0
  5 34  1  0
 34 35  2  0
 35  2  1  0
 22  9  1  0
 33 26  1  0
 19 13  1  0
 25 21  1  0
M  END
>  <energy>  (373) 
-3.89

>  <full_id>  (373) 
MOL00014690-002723-02_1

>  <mol_id>  (373) 
MOL00014690-002723-02

>  <act_mol>  (373) 
0

>  <act_conf>  (373) 
0

$$$$
MOL00014943-001740-03
     RDKit          3D

 33 33  0  0  0  0  0  0  0  0999 V2000
    8.1672    3.1221   -2.2413 C   0  0  0  0  0  0  0  0  0  0  0  0
    6.8918    3.9425   -2.3101 C   0  0  0  0  0  0  0  0  0  0  0  0
    6.0925    3.8031   -1.1125 N   0  0  0  0  0  0  0  0  0  0  0  0
    5.2870    2.7244   -0.8894 C   0  0  0  0  0  0  0  0  0  0  0  0
    5.1639    1.7839   -1.6610 O   0  0  0  0  0  0  0  0  0  0  0  0
    4.6609    2.8606    0.3339 O   0  0  0  0  0  0  0  0  0  0  0  0
    3.7264    1.8601    0.6169 C   0  0  0  0  0  0  0  0  0  0  0  0
    3.9954    0.9875    1.6671 C   0  0  0  0  0  0  0  0  0  0  0  0
    3.0552    0.0088    1.9981 C   0  0  0  0  0  0  0  0  0  0  0  0
    1.8368   -0.1055    1.2946 C   0  0  0  0  0  0  0  0  0  0  0  0
    0.9022   -1.2324    1.6793 C   0  0  0  0  0  0  0  0  0  0  0  0
   -0.3508   -0.7875    2.2524 N   0  0  0  0  0  0  0  0  0  0  0  0
   -1.2073   -1.7221    2.7961 C   0  0  0  0  0  0  0  0  0  0  0  0
   -0.8843   -2.8933    2.9902 O   0  0  0  0  0  0  0  0  0  0  0  0
   -2.6192   -1.2112    3.1473 C   0  0  1  0  0  0  0  0  0  0  0  0
   -3.4319   -0.7874    1.9221 C   0  0  0  0  0  0  0  0  0  0  0  0
   -3.4652   -1.8519    0.8122 C   0  0  0  0  0  0  0  0  0  0  0  0
   -4.3279   -1.4335   -0.2853 N   0  0  0  0  0  0  0  0  0  0  0  0
   -3.8438   -0.8830   -1.4583 C   0  0  0  0  0  0  0  0  0  0  0  0
   -2.6416   -0.7622   -1.7055 O   0  0  0  0  0  0  0  0  0  0  0  0
   -4.9116   -0.4316   -2.4318 C   0  0  0  0  0  0  0  0  0  0  0  0
   -5.3722   -1.5781   -3.2243 C   0  0  0  0  0  0  0  0  0  0  0  0
   -5.7987   -2.4732   -3.8280 N   0  0  0  0  0  0  0  0  0  0  0  0
   -3.2884   -2.2663    3.9030 N   0  0  0  0  0  0  0  0  0  0  0  0
   -4.3935   -2.0247    4.6762 C   0  0  0  0  0  0  0  0  0  0  0  0
   -4.8751   -3.2221    5.4549 C   0  0  0  0  0  0  0  0  0  0  0  0
   -4.9579   -0.9369    4.7251 O   0  0  0  0  0  0  0  0  0  0  0  0
    1.5833    0.8186    0.2551 C   0  0  0  0  0  0  0  0  0  0  0  0
    0.0336    0.8298   -0.6206 S   0  0  0  0  0  6  0  0  0  0  0  0
    0.1471    1.7017   -1.7639 O   0  0  0  0  0  0  0  0  0  0  0  0
   -0.9878    1.0363    0.3880 O   0  0  0  0  0  0  0  0  0  0  0  0
   -0.1375   -0.6695   -1.1788 O   0  0  0  0  0  0  0  0  0  0  0  0
    2.5234    1.8039   -0.0805 C   0  0  0  0  0  0  0  0  0  0  0  0
  1  2  1  0
  2  3  1  0
  3  4  1  0
  4  5  2  0
  4  6  1  0
  6  7  1  0
  7  8  2  0
  8  9  1  0
  9 10  2  0
 10 11  1  0
 11 12  1  0
 12 13  1  0
 13 14  2  0
 13 15  1  0
 15 16  1  6
 16 17  1  0
 17 18  1  0
 18 19  1  0
 19 20  2  0
 19 21  1  0
 21 22  1  0
 22 23  3  0
 15 24  1  0
 24 25  1  0
 25 26  1  0
 25 27  2  0
 10 28  1  0
 28 29  1  0
 29 30  2  0
 29 31  2  0
 29 32  1  0
 28 33  2  0
 33  7  1  0
M  END
>  <energy>  (374) 
-121.45

>  <full_id>  (374) 
MOL00014943-001740-03_1

>  <mol_id>  (374) 
MOL00014943-001740-03

>  <act_mol>  (374) 
0

>  <act_conf>  (374) 
0

$$$$
MOL00015375-001206-03
     RDKit          3D

 19 20  0  0  0  0  0  0  0  0999 V2000
    4.4953   -0.4601   -2.7157 C   0  0  0  0  0  0  0  0  0  0  0  0
    3.0817   -0.8242   -2.2848 C   0  0  0  0  0  0  0  0  0  0  0  0
    3.0123   -1.2972   -0.8342 C   0  0  0  0  0  0  0  0  0  0  0  0
    3.3684   -0.2568    0.1126 N   0  0  0  0  0  0  0  0  0  0  0  0
    2.5495    0.7653    0.5347 C   0  0  0  0  0  0  0  0  0  0  0  0
    3.2323    1.9287    1.5378 S   0  0  0  0  0  0  0  0  0  0  0  0
    1.2594    0.7808    0.0553 N   0  0  0  0  0  0  0  0  0  0  0  0
    0.4772    0.2372    0.8657 N   0  0  0  0  0  0  0  0  0  0  0  0
   -0.8171    0.1657    0.4682 C   0  0  0  0  0  0  0  0  0  0  0  0
   -1.7413   -0.3883    1.3235 N   0  0  0  0  0  0  0  0  0  0  0  0
   -2.9985   -0.4029    0.7612 C   0  0  0  0  0  0  0  0  0  0  0  0
   -4.2138   -0.8749    1.2712 C   0  0  0  0  0  0  0  0  0  0  0  0
   -5.3438   -0.7515    0.4569 C   0  0  0  0  0  0  0  0  0  0  0  0
   -5.2509   -0.1796   -0.8064 C   0  0  0  0  0  0  0  0  0  0  0  0
   -6.3967   -0.0912   -1.5447 O   0  0  0  0  0  0  0  0  0  0  0  0
   -4.0363    0.2897   -1.3092 C   0  0  0  0  0  0  0  0  0  0  0  0
   -2.8857    0.1731   -0.5045 C   0  0  0  0  0  0  0  0  0  0  0  0
   -1.5235    0.5231   -0.6639 C   0  0  0  0  0  0  0  0  0  0  0  0
   -0.9748    1.1108   -1.7431 O   0  0  0  0  0  0  0  0  0  0  0  0
  1  2  1  0
  2  3  1  0
  3  4  1  0
  4  5  1  0
  5  6  2  0
  5  7  1  0
  7  8  2  0
  8  9  1  0
  9 10  1  0
 10 11  1  0
 11 12  2  0
 12 13  1  0
 13 14  2  0
 14 15  1  0
 14 16  1  0
 16 17  2  0
 17 18  1  0
 18 19  1  0
 18  9  2  0
 17 11  1  0
M  END
>  <energy>  (375) 
-23.16

>  <full_id>  (375) 
MOL00015375-001206-03_1

>  <mol_id>  (375) 
MOL00015375-001206-03

>  <act_mol>  (375) 
0

>  <act_conf>  (375) 
0

$$$$
MOL00015344-000478-03
     RDKit          3D

 21 22  0  0  0  0  0  0  0  0999 V2000
    5.8101    0.2023   -1.8663 C   0  0  0  0  0  0  0  0  0  0  0  0
    5.3058   -0.7757   -0.8163 C   0  0  0  0  0  0  0  0  0  0  0  0
    3.8538   -0.5459   -0.4882 C   0  0  0  0  0  0  0  0  0  0  0  0
    3.4840    0.3390    0.5276 C   0  0  0  0  0  0  0  0  0  0  0  0
    2.1330    0.5633    0.8207 C   0  0  0  0  0  0  0  0  0  0  0  0
    1.1122   -0.0808    0.1043 C   0  0  0  0  0  0  0  0  0  0  0  0
   -0.2858    0.1507    0.4158 N   0  0  0  0  0  0  0  0  0  0  0  0
   -1.2838    0.2083   -0.5773 C   0  0  0  0  0  0  0  0  0  0  0  0
   -0.8293    0.1910   -1.8883 O   0  0  0  0  0  0  0  0  0  0  0  0
   -2.5978    0.3353   -0.2685 C   0  0  0  0  0  0  0  0  0  0  0  0
   -3.5499    0.3428   -1.4249 C   0  0  0  0  0  0  0  0  0  0  0  0
   -4.7239   -0.3142   -1.2684 N   0  0  0  0  0  0  0  0  0  0  0  0
   -3.2519    0.8564   -2.5009 O   0  0  0  0  0  0  0  0  0  0  0  0
   -3.0113    0.5105    1.1198 C   0  0  0  0  0  0  0  0  0  0  0  0
   -4.4393    0.8025    1.4962 C   0  0  0  0  0  0  0  0  0  0  0  0
   -5.2499   -0.4171    1.4701 N   0  0  0  0  0  0  0  0  0  0  0  0
   -2.0691    0.5027    2.0739 C   0  0  0  0  0  0  0  0  0  0  0  0
   -0.6351    0.2771    1.7729 C   0  0  0  0  0  0  0  0  0  0  0  0
    0.1104    0.1986    2.7492 O   0  0  0  0  0  0  0  0  0  0  0  0
    1.4989   -0.9659   -0.9139 C   0  0  0  0  0  0  0  0  0  0  0  0
    2.8485   -1.1939   -1.2102 C   0  0  0  0  0  0  0  0  0  0  0  0
  1  2  1  0
  2  3  1  0
  3  4  2  0
  4  5  1  0
  5  6  2  0
  6  7  1  0
  7  8  1  0
  8  9  1  0
  8 10  2  0
 10 11  1  0
 11 12  1  0
 11 13  2  0
 10 14  1  0
 14 15  1  0
 15 16  1  0
 14 17  2  0
 17 18  1  0
 18 19  2  0
  6 20  1  0
 20 21  2  0
 21  3  1  0
 18  7  1  0
M  END
>  <energy>  (376) 
0.21

>  <full_id>  (376) 
MOL00015344-000478-03_1

>  <mol_id>  (376) 
MOL00015344-000478-03

>  <act_mol>  (376) 
0

>  <act_conf>  (376) 
0

$$$$
MOL00015153-000256-03
     RDKit          3D

 32 34  0  0  0  0  0  0  0  0999 V2000
    3.4152   -1.5769    2.0055 C   0  0  0  0  0  0  0  0  0  0  0  0
    2.4341   -1.3640    0.9235 C   0  0  0  0  0  0  0  0  0  0  0  0
    2.6854   -0.5421   -0.1466 N   0  0  0  0  0  0  0  0  0  0  0  0
    1.5941   -0.6362   -0.8752 C   0  0  0  0  0  0  0  0  0  0  0  0
    1.2757    0.0001   -2.0234 N   0  0  0  0  0  0  0  0  0  0  0  0
    2.1670    1.0019   -2.5856 C   0  0  0  0  0  0  0  0  0  0  0  0
    1.7877    2.4228   -2.1638 C   0  0  0  0  0  0  0  0  0  0  0  0
    1.8614    2.6951   -0.6613 C   0  0  0  0  0  0  0  0  0  0  0  0
    3.1206    2.2870   -0.0725 N   0  0  0  0  0  0  0  0  0  0  0  0
    4.2641    3.0446   -0.1984 C   0  0  0  0  0  0  0  0  0  0  0  0
    4.2717    4.1696   -0.6909 O   0  0  0  0  0  0  0  0  0  0  0  0
    5.5155    2.3836    0.3254 C   0  0  0  0  0  0  0  0  0  0  0  0
    6.3848    2.0028   -0.7856 C   0  0  0  0  0  0  0  0  0  0  0  0
    7.0913    1.6685   -1.6436 N   0  0  0  0  0  0  0  0  0  0  0  0
    0.7246   -1.4943   -0.2477 N   0  0  0  0  0  0  0  0  0  0  0  0
   -0.5905   -1.9235   -0.6747 C   0  0  0  0  0  0  0  0  0  0  0  0
   -1.6963   -0.8723   -0.4167 C   0  0  2  0  0  0  0  0  0  0  0  0
   -1.4769    0.2014   -1.3642 O   0  0  0  0  0  0  0  0  0  0  0  0
   -1.6146   -0.3015    1.0263 C   0  0  0  0  0  0  0  0  0  0  0  0
   -2.6798    0.6377    1.3235 N   0  0  0  0  0  0  0  0  0  0  0  0
   -3.5676    0.6089    2.3494 C   0  0  0  0  0  0  0  0  0  0  0  0
   -4.3593    1.6527    2.2674 N   0  0  0  0  0  0  0  0  0  0  0  0
   -3.9049    2.3029    1.1559 C   0  0  0  0  0  0  0  0  0  0  0  0
   -2.8725    1.7186    0.5378 N   0  0  0  0  0  0  0  0  0  0  0  0
   -3.0523   -1.5383   -0.7123 C   0  0  0  0  0  0  0  0  0  0  0  0
   -3.5688   -2.5327    0.1447 C   0  0  0  0  0  0  0  0  0  0  0  0
   -4.8024   -3.1347   -0.1154 C   0  0  0  0  0  0  0  0  0  0  0  0
   -5.5292   -2.7561   -1.2351 C   0  0  0  0  0  0  0  0  0  0  0  0
   -6.7107   -3.3355   -1.4827 F   0  0  0  0  0  0  0  0  0  0  0  0
   -5.0432   -1.7901   -2.1034 C   0  0  0  0  0  0  0  0  0  0  0  0
   -3.8098   -1.1861   -1.8460 C   0  0  0  0  0  0  0  0  0  0  0  0
    1.2177   -1.9208    0.9341 N   0  0  0  0  0  0  0  0  0  0  0  0
  1  2  1  0
  2  3  1  0
  3  4  2  0
  4  5  1  0
  5  6  1  0
  6  7  1  0
  7  8  1  0
  8  9  1  0
  9 10  1  0
 10 11  2  0
 10 12  1  0
 12 13  1  0
 13 14  3  0
  4 15  1  0
 15 16  1  0
 16 17  1  0
 17 18  1  6
 17 19  1  0
 19 20  1  0
 20 21  1  0
 21 22  2  0
 22 23  1  0
 23 24  2  0
 17 25  1  0
 25 26  2  0
 26 27  1  0
 27 28  2  0
 28 29  1  0
 28 30  1  0
 30 31  2  0
 15 32  1  0
 32  2  2  0
 24 20  1  0
 31 25  1  0
M  END
>  <energy>  (377) 
5.36

>  <full_id>  (377) 
MOL00015153-000256-03_1

>  <mol_id>  (377) 
MOL00015153-000256-03

>  <act_mol>  (377) 
0

>  <act_conf>  (377) 
0

$$$$
MOL00015227-000130-02
     RDKit          3D

 28 30  0  0  0  0  0  0  0  0999 V2000
    2.8606    1.8977    0.6081 O   0  0  0  0  0  0  0  0  0  0  0  0
    2.1834    0.8971    0.4174 C   0  0  0  0  0  0  0  0  0  0  0  0
    0.8507    0.8017    0.7044 N   0  0  0  0  0  0  0  0  0  0  0  0
    0.1740    1.8412    1.4365 C   0  0  0  0  0  0  0  0  0  0  0  0
   -1.3132    1.6588    1.2648 C   0  0  0  0  0  0  0  0  0  0  0  0
   -2.1091    1.2224    2.2580 C   0  0  0  0  0  0  0  0  0  0  0  0
   -3.5980    1.0371    2.1157 C   0  0  0  0  0  0  0  0  0  0  0  0
   -4.1577    1.2578    0.6974 C   0  0  2  0  0  0  0  0  0  0  0  0
   -4.8840   -0.2431   -0.0143 S   0  0  0  0  0  6  0  0  0  0  0  0
   -5.5587    0.1507   -1.2416 O   0  0  0  0  0  0  0  0  0  0  0  0
   -5.6470   -0.9152    1.0225 O   0  0  0  0  0  0  0  0  0  0  0  0
   -3.5441   -1.3044   -0.4965 C   0  0  2  0  0  0  0  0  0  0  0  0
   -4.0157   -2.5339   -1.2439 C   0  0  0  0  0  0  0  0  0  0  0  0
   -2.8290   -3.4607   -1.1042 C   0  0  0  0  0  0  0  0  0  0  0  0
   -2.1816   -3.1246    0.1319 O   0  0  0  0  0  0  0  0  0  0  0  0
   -2.7879   -1.9278    0.6487 C   0  0  0  0  0  0  0  0  0  0  0  0
   -3.1824    1.8421   -0.2959 C   0  0  0  0  0  0  0  0  0  0  0  0
   -1.8835    2.0211   -0.0194 C   0  0  0  0  0  0  0  0  0  0  0  0
    2.6245   -0.3098   -0.0985 O   0  0  0  0  0  0  0  0  0  0  0  0
    3.9809   -0.3084   -0.4294 C   0  0  0  0  0  0  0  0  0  0  0  0
    4.8903   -0.8706    0.4644 C   0  0  0  0  0  0  0  0  0  0  0  0
    6.2437   -0.9156    0.1231 C   0  0  0  0  0  0  0  0  0  0  0  0
    6.6742   -0.4114   -1.1133 C   0  0  0  0  0  0  0  0  0  0  0  0
    8.1006   -0.4389   -1.5192 C   0  0  0  0  0  0  0  0  0  0  0  0
    8.5493   -0.0370   -2.5767 O   0  0  0  0  0  0  0  0  0  0  0  0
    8.9012   -0.9724   -0.5796 O   0  0  0  0  0  0  0  0  0  0  0  0
    5.7413    0.1335   -2.0085 C   0  0  0  0  0  0  0  0  0  0  0  0
    4.3879    0.1798   -1.6700 C   0  0  0  0  0  0  0  0  0  0  0  0
  1  2  2  0
  2  3  1  0
  3  4  1  0
  4  5  1  0
  5  6  2  0
  6  7  1  0
  8  7  1  0
  8  9  1  6
  9 10  2  0
  9 11  2  0
 12  9  1  1
 12 13  1  0
 13 14  1  0
 14 15  1  0
 15 16  1  0
  8 17  1  0
 17 18  2  0
  2 19  1  0
 19 20  1  0
 20 21  2  0
 21 22  1  0
 22 23  2  0
 23 24  1  0
 24 25  2  0
 24 26  1  0
 23 27  1  0
 27 28  2  0
 18  5  1  0
 28 20  1  0
 16 12  1  0
M  END
>  <energy>  (378) 
0.43

>  <full_id>  (378) 
MOL00015227-000130-02_1

>  <mol_id>  (378) 
MOL00015227-000130-02

>  <act_mol>  (378) 
0

>  <act_conf>  (378) 
0

$$$$
MOL00015075-000019-04
     RDKit          3D

 34 37  0  0  0  0  0  0  0  0999 V2000
    2.4400    1.3431    2.8339 C   0  0  0  0  0  0  0  0  0  0  0  0
    2.2207    0.8075    1.4539 C   0  0  0  0  0  0  0  0  0  0  0  0
    0.9906    0.3629    1.1479 N   0  0  0  0  0  0  0  0  0  0  0  0
    0.7668   -0.0874   -0.0997 C   0  0  0  0  0  0  0  0  0  0  0  0
   -0.4976   -0.5893   -0.4781 N   0  0  0  0  0  0  0  0  0  0  0  0
   -1.6139   -0.6824    0.3459 C   0  0  0  0  0  0  0  0  0  0  0  0
   -1.6572   -1.0213    1.6383 C   0  0  0  0  0  0  0  0  0  0  0  0
   -2.8916   -1.0558    2.3606 C   0  0  0  0  0  0  0  0  0  0  0  0
   -4.0790   -0.8510    1.7616 C   0  0  0  0  0  0  0  0  0  0  0  0
   -4.1357   -0.5887    0.3712 N   0  0  0  0  0  0  0  0  0  0  0  0
   -2.9356   -0.3956   -0.3395 C   0  0  0  0  0  0  0  0  0  0  0  0
   -2.8660   -0.0199   -1.5121 O   0  0  0  0  0  0  0  0  0  0  0  0
   -5.4221   -0.3100   -0.3863 C   0  0  2  0  0  0  0  0  0  0  0  0
   -5.4543   -1.1252   -1.7196 C   0  0  0  0  0  0  0  0  0  0  0  0
   -5.5961    1.2244   -0.7754 C   0  0  0  0  0  0  0  0  0  0  0  0
   -4.7552    1.6556   -1.7370 F   0  0  0  0  0  0  0  0  0  0  0  0
   -6.8571    1.4292   -1.2565 F   0  0  0  0  0  0  0  0  0  0  0  0
   -5.4509    2.0497    0.2867 F   0  0  0  0  0  0  0  0  0  0  0  0
   -6.5975   -0.9278    0.3273 N   0  0  0  0  0  0  0  0  0  0  0  0
   -7.1196   -0.0965    1.3947 C   0  0  0  0  0  0  0  0  0  0  0  0
   -6.1314    0.2508    2.3349 O   0  0  0  0  0  0  0  0  0  0  0  0
   -5.3065   -0.8626    2.6440 C   0  0  0  0  0  0  0  0  0  0  0  0
    1.7761   -0.1161   -1.0370 C   0  0  0  0  0  0  0  0  0  0  0  0
    3.0035    0.3624   -0.6335 C   0  0  0  0  0  0  0  0  0  0  0  0
    4.1337    0.3699   -1.6049 C   0  0  0  0  0  0  0  0  0  0  0  0
    3.9397    0.0387   -2.7758 O   0  0  0  0  0  0  0  0  0  0  0  0
    5.5065    0.7720   -1.1066 C   0  0  0  0  0  0  0  0  0  0  0  0
    6.2717   -0.3903   -0.5261 C   0  0  0  0  0  0  0  0  0  0  0  0
    6.4438   -0.5115    0.8592 C   0  0  0  0  0  0  0  0  0  0  0  0
    7.1408   -1.5967    1.3926 C   0  0  0  0  0  0  0  0  0  0  0  0
    7.6687   -2.5713    0.5478 C   0  0  0  0  0  0  0  0  0  0  0  0
    7.4984   -2.4634   -0.8310 C   0  0  0  0  0  0  0  0  0  0  0  0
    6.8021   -1.3790   -1.3664 C   0  0  0  0  0  0  0  0  0  0  0  0
    3.2515    0.8427    0.6002 N   0  0  0  0  0  0  0  0  0  0  0  0
  1  2  1  0
  2  3  2  0
  3  4  1  0
  4  5  1  0
  5  6  1  0
  6  7  2  0
  7  8  1  0
  8  9  2  0
  9 10  1  0
 10 11  1  0
 11 12  2  0
 10 13  1  0
 13 14  1  6
 13 15  1  0
 15 16  1  0
 15 17  1  0
 15 18  1  0
 13 19  1  0
 19 20  1  0
 20 21  1  0
 21 22  1  0
  4 23  2  0
 23 24  1  0
 24 25  1  0
 25 26  2  0
 25 27  1  0
 27 28  1  0
 28 29  2  0
 29 30  1  0
 30 31  2  0
 31 32  1  0
 32 33  2  0
 24 34  2  0
 34  2  1  0
 11  6  1  0
 33 28  1  0
 22  9  1  0
M  END
>  <energy>  (379) 
81.43

>  <full_id>  (379) 
MOL00015075-000019-04_1

>  <mol_id>  (379) 
MOL00015075-000019-04

>  <act_mol>  (379) 
0

>  <act_conf>  (379) 
0

$$$$
MOL00015258-000003-04
     RDKit          3D

 26 27  0  0  0  0  0  0  0  0999 V2000
   -6.7179    3.0978   -0.4768 C   0  0  0  0  0  0  0  0  0  0  0  0
   -5.4183    2.3476   -0.5248 C   0  0  0  0  0  0  0  0  0  0  0  0
   -4.3218    2.8747   -1.0849 C   0  0  0  0  0  0  0  0  0  0  0  0
   -3.0769    2.0704   -1.0986 C   0  0  0  0  0  0  0  0  0  0  0  0
   -2.0562    2.5651   -1.5734 O   0  0  0  0  0  0  0  0  0  0  0  0
   -3.1017    0.6839   -0.5278 C   0  0  0  0  0  0  0  0  0  0  0  0
   -1.8905   -0.1864   -0.6238 C   0  0  0  0  0  0  0  0  0  0  0  0
   -1.9605   -1.3962   -0.8232 O   0  0  0  0  0  0  0  0  0  0  0  0
   -0.6897    0.4614   -0.4935 N   0  0  0  0  0  0  0  0  0  0  0  0
    0.5626   -0.2325   -0.7095 C   0  0  0  0  0  0  0  0  0  0  0  0
    1.7394    0.6602   -0.3373 C   0  0  0  0  0  0  0  0  0  0  0  0
    1.5894    1.8322    0.0111 O   0  0  0  0  0  0  0  0  0  0  0  0
    3.1175    0.0871   -0.4127 C   0  0  0  0  0  0  0  0  0  0  0  0
    4.1953    0.8902   -0.0169 C   0  0  0  0  0  0  0  0  0  0  0  0
    5.5039    0.4014   -0.0685 C   0  0  0  0  0  0  0  0  0  0  0  0
    5.7597   -0.8995   -0.5196 C   0  0  0  0  0  0  0  0  0  0  0  0
    7.1780   -1.4258   -0.5707 C   0  0  1  0  0  0  0  0  0  0  0  0
    7.4351   -2.5113    0.4656 C   0  0  0  0  0  0  0  0  0  0  0  0
    7.4524   -1.9535   -1.8668 O   0  0  0  0  0  0  0  0  0  0  0  0
    4.6770   -1.6998   -0.9158 C   0  0  0  0  0  0  0  0  0  0  0  0
    3.3661   -1.2134   -0.8644 C   0  0  0  0  0  0  0  0  0  0  0  0
   -4.2642    0.2672    0.0392 C   0  0  0  0  0  0  0  0  0  0  0  0
   -4.4430   -1.0873    0.7371 C   0  0  0  0  0  0  0  0  0  0  0  0
   -5.0495   -0.9474    2.1408 C   0  0  0  0  0  0  0  0  0  0  0  0
   -5.2839   -2.0361   -0.1198 C   0  0  0  0  0  0  0  0  0  0  0  0
   -5.3856    1.0913    0.0330 N   0  0  0  0  0  0  0  0  0  0  0  0
  1  2  1  0
  2  3  2  0
  3  4  1  0
  4  5  2  0
  4  6  1  0
  6  7  1  0
  7  8  2  0
  7  9  1  0
  9 10  1  0
 10 11  1  0
 11 12  2  0
 11 13  1  0
 13 14  2  0
 14 15  1  0
 15 16  2  0
 16 17  1  0
 17 18  1  1
 17 19  1  0
 16 20  1  0
 20 21  2  0
  6 22  2  0
 22 23  1  0
 23 24  1  0
 23 25  1  0
 22 26  1  0
 26  2  1  0
 21 13  1  0
M  END
>  <energy>  (380) 
58.29

>  <full_id>  (380) 
MOL00015258-000003-04_1

>  <mol_id>  (380) 
MOL00015258-000003-04

>  <act_mol>  (380) 
0

>  <act_conf>  (380) 
0

$$$$
MOL00015414-000588-02
     RDKit          3D

 22 23  0  0  0  0  0  0  0  0999 V2000
    6.4185   -0.8837    0.3264 C   0  0  0  0  0  0  0  0  0  0  0  0
    4.9812   -0.9092   -0.0150 C   0  0  0  0  0  0  0  0  0  0  0  0
    4.0403   -0.0749    0.3701 N   0  0  0  0  0  0  0  0  0  0  0  0
    2.8947   -0.5657   -0.2429 C   0  0  0  0  0  0  0  0  0  0  0  0
    1.5763    0.0787   -0.0730 C   0  0  0  0  0  0  0  0  0  0  0  0
    0.5287   -0.3376   -0.5670 O   0  0  0  0  0  0  0  0  0  0  0  0
    1.6244    1.2002    0.7329 N   0  0  0  0  0  0  0  0  0  0  0  0
    0.4660    2.0025    1.0942 C   0  0  2  0  0  0  0  0  0  0  0  0
    0.8915    3.4669    1.2053 C   0  0  0  0  0  0  0  0  0  0  0  0
   -0.1548    1.5312    2.4218 C   0  0  0  0  0  0  0  0  0  0  0  0
   -0.8549    0.1726    2.3649 C   0  0  0  0  0  0  0  0  0  0  0  0
   -2.1687    0.2469    1.6073 C   0  0  0  0  0  0  0  0  0  0  0  0
   -3.1831    0.6538    2.1657 O   0  0  0  0  0  0  0  0  0  0  0  0
   -2.0669   -0.1407    0.2889 N   0  0  0  0  0  0  0  0  0  0  0  0
   -3.1030   -0.1806   -0.6662 C   0  0  0  0  0  0  0  0  0  0  0  0
   -2.7659   -0.5581   -1.9682 C   0  0  0  0  0  0  0  0  0  0  0  0
   -3.7483   -0.6168   -2.9545 C   0  0  0  0  0  0  0  0  0  0  0  0
   -5.0480   -0.2942   -2.6057 C   0  0  0  0  0  0  0  0  0  0  0  0
   -5.4183    0.0740   -1.3622 N   0  0  0  0  0  0  0  0  0  0  0  0
   -4.4390    0.1219   -0.4198 C   0  0  0  0  0  0  0  0  0  0  0  0
    3.1099   -1.6707   -0.9777 N   0  0  0  0  0  0  0  0  0  0  0  0
    4.4272   -1.8617   -0.8206 N   0  0  0  0  0  0  0  0  0  0  0  0
  1  2  1  0
  2  3  2  0
  3  4  1  0
  4  5  1  0
  5  6  2  0
  5  7  1  0
  7  8  1  0
  8  9  1  1
  8 10  1  0
 10 11  1  0
 11 12  1  0
 12 13  2  0
 12 14  1  0
 14 15  1  0
 15 16  2  0
 16 17  1  0
 17 18  2  0
 18 19  1  0
 19 20  2  0
  4 21  2  0
 21 22  1  0
 22  2  1  0
 20 15  1  0
M  END
>  <energy>  (381) 
49.80

>  <full_id>  (381) 
MOL00015414-000588-02_1

>  <mol_id>  (381) 
MOL00015414-000588-02

>  <act_mol>  (381) 
0

>  <act_conf>  (381) 
0

$$$$
MOL00014997-000175-04
     RDKit          3D

 31 34  0  0  0  0  0  0  0  0999 V2000
   -4.0867   -3.7491   -1.1481 C   0  0  0  0  0  0  0  0  0  0  0  0
   -4.4222   -2.3562   -0.6819 C   0  0  0  0  0  0  0  0  0  0  0  0
   -5.5866   -2.0405   -0.4410 O   0  0  0  0  0  0  0  0  0  0  0  0
   -3.3211   -1.3455   -0.5139 C   0  0  0  0  0  0  0  0  0  0  0  0
   -2.0214   -1.6418   -0.9709 C   0  0  0  0  0  0  0  0  0  0  0  0
   -0.9662   -0.7243   -0.8221 C   0  0  0  0  0  0  0  0  0  0  0  0
   -1.2261    0.5139   -0.2210 C   0  0  0  0  0  0  0  0  0  0  0  0
   -2.5180    0.8084    0.2411 C   0  0  0  0  0  0  0  0  0  0  0  0
   -3.5789   -0.0928    0.0904 C   0  0  0  0  0  0  0  0  0  0  0  0
   -4.8885    0.2210    0.5279 N   0  0  0  0  0  0  0  0  0  0  0  0
   -5.3649    1.4073    1.0574 C   0  0  0  0  0  0  0  0  0  0  0  0
   -4.7005    2.4213    1.2472 O   0  0  0  0  0  0  0  0  0  0  0  0
   -6.8543    1.3315    1.4096 C   0  0  0  0  0  0  0  0  0  0  0  0
   -7.4253    2.7192    1.6930 C   0  0  0  0  0  0  0  0  0  0  0  0
   -7.0655    0.4145    2.6125 C   0  0  0  0  0  0  0  0  0  0  0  0
   -0.1301    1.5302   -0.0096 C   0  0  0  0  0  0  0  0  0  0  0  0
    1.0688    1.2975   -0.9247 C   0  0  0  0  0  0  0  0  0  0  0  0
    1.4863   -0.1485   -0.8397 N   0  0  2  0  0  4  0  0  0  0  0  0
    2.8095   -0.4241   -1.4800 C   0  0  0  0  0  0  0  0  0  0  0  0
    3.8666    0.1279   -0.6977 N   0  0  0  0  0  0  0  0  0  0  0  0
    4.9935    0.6524   -1.2457 C   0  0  0  0  0  0  0  0  0  0  0  0
    5.1673    0.8715   -2.4315 O   0  0  0  0  0  0  0  0  0  0  0  0
    5.9073    0.8696   -0.2482 N   0  0  0  0  0  0  0  0  0  0  0  0
    5.4683    0.3662    1.0377 C   0  0  2  0  0  0  0  0  0  0  0  0
    5.3043    1.5005    2.0442 C   0  0  0  0  0  0  0  0  0  0  0  0
    6.3452   -0.7367    1.5677 C   0  0  0  0  0  0  0  0  0  0  0  0
    7.2084   -1.6103    0.6836 C   0  0  0  0  0  0  0  0  0  0  0  0
    7.8513   -0.6115    1.6090 C   0  0  0  0  0  0  0  0  0  0  0  0
    4.0811   -0.1637    0.6142 C   0  0  0  0  0  0  0  0  0  0  0  0
    3.2551   -0.7445    1.3078 O   0  0  0  0  0  0  0  0  0  0  0  0
    0.4047   -1.0532   -1.3595 C   0  0  0  0  0  0  0  0  0  0  0  0
  1  2  1  0
  2  3  2  0
  2  4  1  0
  4  5  2  0
  5  6  1  0
  6  7  2  0
  7  8  1  0
  8  9  2  0
  9 10  1  0
 10 11  1  0
 11 12  2  0
 11 13  1  0
 13 14  1  0
 13 15  1  0
  7 16  1  0
 16 17  1  0
 17 18  1  0
 18 19  1  6
 19 20  1  0
 20 21  1  0
 21 22  2  0
 21 23  1  0
 23 24  1  0
 24 25  1  1
 24 26  1  0
 26 27  1  0
 27 28  1  0
 24 29  1  0
 29 30  2  0
 18 31  1  0
  9  4  1  0
 29 20  1  0
 31  6  1  0
 28 26  1  0
M  CHG  1  18   1
M  END
>  <energy>  (382) 
-57.81

>  <full_id>  (382) 
MOL00014997-000175-04_1

>  <mol_id>  (382) 
MOL00014997-000175-04

>  <act_mol>  (382) 
0

>  <act_conf>  (382) 
0

$$$$
MOL00015273-000204-04
     RDKit          3D

 31 32  0  0  0  0  0  0  0  0999 V2000
   -4.9502   -0.7267   -4.5536 C   0  0  0  0  0  0  0  0  0  0  0  0
   -5.3396   -1.8995   -3.6650 C   0  0  0  0  0  0  0  0  0  0  0  0
   -5.5978   -1.4798   -2.2216 C   0  0  0  0  0  0  0  0  0  0  0  0
   -4.3911   -1.0114   -1.5683 N   0  0  0  0  0  0  0  0  0  0  0  0
   -4.4802   -0.3981   -0.3423 C   0  0  0  0  0  0  0  0  0  0  0  0
   -5.5526   -0.2046    0.2219 O   0  0  0  0  0  0  0  0  0  0  0  0
   -3.2485   -0.0343    0.2037 N   0  0  0  0  0  0  0  0  0  0  0  0
   -2.1148    0.3398   -0.6467 C   0  0  0  0  0  0  0  0  0  0  0  0
   -0.7856    0.2162    0.0874 C   0  0  0  0  0  0  0  0  0  0  0  0
   -0.8173    0.9907    1.4079 C   0  0  0  0  0  0  0  0  0  0  0  0
    0.4396    0.8359    2.1336 N   0  0  0  0  0  0  0  0  0  0  0  0
    1.5658    1.5474    1.7695 C   0  0  0  0  0  0  0  0  0  0  0  0
    1.5528    2.4328    0.9170 O   0  0  0  0  0  0  0  0  0  0  0  0
    2.8077    1.2142    2.5326 C   0  0  0  0  0  0  0  0  0  0  0  0
    3.4639   -0.3393    1.9937 S   0  0  0  0  0  6  0  0  0  0  0  0
    4.7972   -0.4984    2.5313 O   0  0  0  0  0  0  0  0  0  0  0  0
    2.4459   -1.3423    2.2409 O   0  0  0  0  0  0  0  0  0  0  0  0
    3.5672   -0.2012    0.3124 N   0  0  0  0  0  0  0  0  0  0  0  0
    4.7903    0.3068   -0.2289 C   0  0  0  0  0  0  0  0  0  0  0  0
    4.9226    1.6990   -0.3218 C   0  0  0  0  0  0  0  0  0  0  0  0
    6.1122    2.2669   -0.7767 C   0  0  0  0  0  0  0  0  0  0  0  0
    7.1695    1.4416   -1.1286 C   0  0  0  0  0  0  0  0  0  0  0  0
    8.3147    1.9819   -1.5620 F   0  0  0  0  0  0  0  0  0  0  0  0
    7.0548    0.0591   -1.0413 C   0  0  0  0  0  0  0  0  0  0  0  0
    5.8568   -0.5311   -0.5946 C   0  0  0  0  0  0  0  0  0  0  0  0
    5.7817   -2.0307   -0.5160 C   0  0  0  0  0  0  0  0  0  0  0  0
    6.3990   -2.6380   -1.5696 F   0  0  0  0  0  0  0  0  0  0  0  0
    4.5024   -2.5082   -0.5280 F   0  0  0  0  0  0  0  0  0  0  0  0
    6.3671   -2.5384    0.5993 F   0  0  0  0  0  0  0  0  0  0  0  0
   -1.9892    0.5137    2.2644 C   0  0  0  0  0  0  0  0  0  0  0  0
   -3.3027    0.6330    1.5024 C   0  0  0  0  0  0  0  0  0  0  0  0
  1  2  1  0
  2  3  1  0
  3  4  1  0
  4  5  1  0
  5  6  2  0
  5  7  1  0
  7  8  1  0
  8  9  1  0
  9 10  1  0
 10 11  1  0
 11 12  1  0
 12 13  2  0
 12 14  1  0
 15 14  1  0
 15 16  2  0
 15 17  2  0
 15 18  1  0
 18 19  1  0
 19 20  2  0
 20 21  1  0
 21 22  2  0
 22 23  1  0
 22 24  1  0
 24 25  2  0
 25 26  1  0
 26 27  1  0
 26 28  1  0
 26 29  1  0
 10 30  1  0
 30 31  1  0
 31  7  1  0
 25 19  1  0
M  END
>  <energy>  (383) 
-149.48

>  <full_id>  (383) 
MOL00015273-000204-04_1

>  <mol_id>  (383) 
MOL00015273-000204-04

>  <act_mol>  (383) 
0

>  <act_conf>  (383) 
0

$$$$
MOL00015565-002236-02
     RDKit          3D

 27 30  0  0  0  0  0  0  0  0999 V2000
    7.2010    2.1098   -1.0477 C   0  0  0  0  0  0  0  0  0  0  0  0
    6.4238    0.9178   -0.8428 N   0  0  0  0  0  0  0  0  0  0  0  0
    5.1548    0.9579   -0.3362 C   0  0  0  0  0  0  0  0  0  0  0  0
    4.5307    1.9825   -0.0973 O   0  0  0  0  0  0  0  0  0  0  0  0
    4.7049   -0.3368   -0.1291 O   0  0  0  0  0  0  0  0  0  0  0  0
    3.4054   -0.3842    0.3836 C   0  0  0  0  0  0  0  0  0  0  0  0
    3.2278   -0.4213    1.7779 C   0  0  0  0  0  0  0  0  0  0  0  0
    1.9393   -0.5063    2.3053 C   0  0  0  0  0  0  0  0  0  0  0  0
    1.7639   -0.5543    3.6323 F   0  0  0  0  0  0  0  0  0  0  0  0
    0.8569   -0.5465    1.4505 C   0  0  0  0  0  0  0  0  0  0  0  0
    1.0781   -0.5439    0.0666 C   0  0  0  0  0  0  0  0  0  0  0  0
    2.3326   -0.4645   -0.5041 C   0  0  0  0  0  0  0  0  0  0  0  0
   -0.2459   -0.6352   -0.5738 C   0  0  0  0  0  0  0  0  0  0  0  0
   -0.4666   -0.6809   -1.7658 O   0  0  0  0  0  0  0  0  0  0  0  0
   -1.2326   -0.6622    0.5749 C   0  0  0  0  0  0  0  0  0  0  0  0
   -2.5578   -0.6185    0.3998 C   0  0  0  0  0  0  0  0  0  0  0  0
   -3.4708   -0.6791    1.5655 C   0  0  0  0  0  0  0  0  0  0  0  0
   -3.1531   -0.6340    2.7396 O   0  0  0  0  0  0  0  0  0  0  0  0
   -4.7438   -0.8077    1.0809 N   0  0  0  0  0  0  0  0  0  0  0  0
   -4.7907   -0.9888   -0.3440 C   0  0  1  0  0  0  0  0  0  0  0  0
   -5.9471   -0.1884   -0.8585 C   0  0  0  0  0  0  0  0  0  0  0  0
   -5.7835    0.9322   -1.5787 C   0  0  0  0  0  0  0  0  0  0  0  0
   -7.2428    1.9121   -2.2086 Br  0  0  0  0  0  0  0  0  0  0  0  0
   -4.4610    1.4355   -1.8774 C   0  0  0  0  0  0  0  0  0  0  0  0
   -3.3498    0.7559   -1.5535 C   0  0  0  0  0  0  0  0  0  0  0  0
   -3.3810   -0.5886   -0.8624 C   0  0  1  0  0  0  0  0  0  0  0  0
   -0.4940   -0.7070    1.7421 N   0  0  0  0  0  0  0  0  0  0  0  0
  1  2  1  0
  2  3  1  0
  3  4  2  0
  3  5  1  0
  5  6  1  0
  6  7  2  0
  7  8  1  0
  8  9  1  0
  8 10  2  0
 10 11  1  0
 11 12  2  0
 11 13  1  0
 13 14  2  0
 13 15  1  0
 15 16  2  0
 16 17  1  0
 17 18  2  0
 17 19  1  0
 20 19  1  0
 20 21  1  6
 21 22  2  0
 22 23  1  0
 22 24  1  0
 24 25  2  0
 26 25  1  1
 15 27  1  0
 12  6  1  0
 26 16  1  0
 27 10  1  0
 26 20  1  0
M  END
>  <energy>  (384) 
-6.27

>  <full_id>  (384) 
MOL00015565-002236-02_1

>  <mol_id>  (384) 
MOL00015565-002236-02

>  <act_mol>  (384) 
0

>  <act_conf>  (384) 
0

$$$$
MOL00015926-000447-03
     RDKit          3D

 24 24  0  0  0  0  0  0  0  0999 V2000
   -5.1179   -3.9742    1.0987 C   0  0  0  0  0  0  0  0  0  0  0  0
   -5.4465   -2.6844    1.2531 C   0  0  0  0  0  0  0  0  0  0  0  0
   -5.7176   -1.7298    0.1324 C   0  0  0  0  0  0  0  0  0  0  0  0
   -4.6838   -0.7166    0.1720 N   0  0  0  0  0  0  0  0  0  0  0  0
   -4.6453    0.4505   -0.5781 C   0  0  0  0  0  0  0  0  0  0  0  0
   -5.9550    0.9657   -1.1309 C   0  0  0  0  0  0  0  0  0  0  0  0
   -3.5244    1.1582   -0.8185 C   0  0  0  0  0  0  0  0  0  0  0  0
   -2.1835    0.7598   -0.3441 C   0  0  0  0  0  0  0  0  0  0  0  0
   -1.8921   -0.2908    0.2113 O   0  0  0  0  0  0  0  0  0  0  0  0
   -1.3039    1.7608   -0.6366 O   0  0  0  0  0  0  0  0  0  0  0  0
    0.0187    1.4272   -0.2399 N   0  0  0  0  0  0  0  0  0  0  0  0
    0.9694    1.7271   -1.1868 C   0  0  0  0  0  0  0  0  0  0  0  0
    0.7571    2.4359   -2.1681 O   0  0  0  0  0  0  0  0  0  0  0  0
    2.3219    1.1320   -0.9981 C   0  0  0  0  0  0  0  0  0  0  0  0
    3.3389    1.4849   -1.8944 C   0  0  0  0  0  0  0  0  0  0  0  0
    4.6258    0.9519   -1.7541 C   0  0  0  0  0  0  0  0  0  0  0  0
    4.9211    0.0567   -0.7182 C   0  0  0  0  0  0  0  0  0  0  0  0
    6.2414   -0.4333   -0.6490 N   0  0  0  0  0  0  0  0  0  0  0  0
    6.7636   -1.3099    0.2857 C   0  0  0  0  0  0  0  0  0  0  0  0
    8.2225   -1.6051    0.0419 C   0  0  0  0  0  0  0  0  0  0  0  0
    6.1724   -1.8038    1.2385 O   0  0  0  0  0  0  0  0  0  0  0  0
    3.9073   -0.2974    0.1720 C   0  0  0  0  0  0  0  0  0  0  0  0
    2.6246    0.2377    0.0282 C   0  0  0  0  0  0  0  0  0  0  0  0
    1.6839   -0.1435    0.9061 F   0  0  0  0  0  0  0  0  0  0  0  0
  1  2  2  0
  2  3  1  0
  3  4  1  0
  4  5  1  0
  5  6  1  0
  5  7  2  0
  7  8  1  0
  8  9  2  0
  8 10  1  0
 10 11  1  0
 11 12  1  0
 12 13  2  0
 12 14  1  0
 14 15  2  0
 15 16  1  0
 16 17  2  0
 17 18  1  0
 18 19  1  0
 19 20  1  0
 19 21  2  0
 17 22  1  0
 22 23  2  0
 23 24  1  0
 23 14  1  0
M  END
>  <energy>  (385) 
29.92

>  <full_id>  (385) 
MOL00015926-000447-03_1

>  <mol_id>  (385) 
MOL00015926-000447-03

>  <act_mol>  (385) 
0

>  <act_conf>  (385) 
0

$$$$
MOL00015255-001599-02
     RDKit          3D

 33 36  0  0  0  0  0  0  0  0999 V2000
   -8.7033    0.5539    0.6086 C   0  0  0  0  0  0  0  0  0  0  0  0
   -7.3756    0.7457   -0.0620 C   0  0  0  0  0  0  0  0  0  0  0  0
   -7.2332    1.6975   -1.0713 C   0  0  0  0  0  0  0  0  0  0  0  0
   -5.9965    1.8870   -1.6865 C   0  0  0  0  0  0  0  0  0  0  0  0
   -4.8762    1.1164   -1.3196 C   0  0  0  0  0  0  0  0  0  0  0  0
   -3.5596    1.4032   -2.0027 C   0  0  0  0  0  0  0  0  0  0  0  0
   -2.6630    2.1735   -1.1469 N   0  0  0  0  0  0  0  0  0  0  0  0
   -5.0113    0.1293   -0.3162 C   0  0  0  0  0  0  0  0  0  0  0  0
   -3.8811   -0.6000    0.1375 N   0  0  0  0  0  0  0  0  0  0  0  0
   -4.0842   -1.6513    0.9836 N   0  0  0  0  0  0  0  0  0  0  0  0
   -3.0518   -2.3858    1.2856 C   0  0  0  0  0  0  0  0  0  0  0  0
   -3.2333   -3.5451    2.2402 C   0  0  0  0  0  0  0  0  0  0  0  0
   -4.3145   -4.0779    2.4231 O   0  0  0  0  0  0  0  0  0  0  0  0
   -2.0172   -4.0192    2.9431 C   0  0  0  0  0  0  0  0  0  0  0  0
   -0.7880   -3.5463    2.7044 C   0  0  0  0  0  0  0  0  0  0  0  0
   -0.4966   -2.5063    1.6836 C   0  0  0  0  0  0  0  0  0  0  0  0
    0.6919   -1.9843    1.6204 N   0  0  0  0  0  0  0  0  0  0  0  0
    0.9010   -1.0103    0.6952 N   0  0  0  0  0  0  0  0  0  0  0  0
    2.2134   -0.5414    0.4852 C   0  0  0  0  0  0  0  0  0  0  0  0
    2.4548    0.3819   -0.5338 C   0  0  0  0  0  0  0  0  0  0  0  0
    3.7354    0.9168   -0.7339 C   0  0  0  0  0  0  0  0  0  0  0  0
    4.8250    0.5589    0.0757 C   0  0  0  0  0  0  0  0  0  0  0  0
    6.0876    1.1280   -0.1584 N   0  0  0  0  0  0  0  0  0  0  0  0
    7.1391    0.9360    0.8646 C   0  0  0  0  0  0  0  0  0  0  0  0
    8.3629    1.8032    0.5314 C   0  0  0  0  0  0  0  0  0  0  0  0
    8.8768    1.5014   -0.7750 O   0  0  0  0  0  0  0  0  0  0  0  0
    7.8676    1.7581   -1.7643 C   0  0  0  0  0  0  0  0  0  0  0  0
    6.6077    0.9070   -1.5309 C   0  0  0  0  0  0  0  0  0  0  0  0
    4.5578   -0.3295    1.1250 C   0  0  0  0  0  0  0  0  0  0  0  0
    3.2758   -0.8640    1.3300 C   0  0  0  0  0  0  0  0  0  0  0  0
   -1.6563   -2.1341    0.7840 C   0  0  0  0  0  0  0  0  0  0  0  0
   -1.4673   -1.7061   -0.3465 O   0  0  0  0  0  0  0  0  0  0  0  0
   -6.2624   -0.0198    0.3114 C   0  0  0  0  0  0  0  0  0  0  0  0
  1  2  1  0
  2  3  2  0
  3  4  1  0
  4  5  2  0
  5  6  1  0
  6  7  1  0
  5  8  1  0
  8  9  1  0
  9 10  1  0
 10 11  2  0
 11 12  1  0
 12 13  2  0
 12 14  1  0
 14 15  2  0
 15 16  1  0
 16 17  2  0
 17 18  1  0
 18 19  1  0
 19 20  2  0
 20 21  1  0
 21 22  2  0
 22 23  1  0
 23 24  1  0
 24 25  1  0
 25 26  1  0
 26 27  1  0
 27 28  1  0
 22 29  1  0
 29 30  2  0
 16 31  1  0
 31 32  2  0
  8 33  2  0
 33  2  1  0
 31 11  1  0
 30 19  1  0
 28 23  1  0
M  END
>  <energy>  (386) 
212.63

>  <full_id>  (386) 
MOL00015255-001599-02_1

>  <mol_id>  (386) 
MOL00015255-001599-02

>  <act_mol>  (386) 
0

>  <act_conf>  (386) 
0

$$$$
MOL00015193-001909-03
     RDKit          3D

 30 31  0  0  0  0  0  0  0  0999 V2000
    4.0050   -3.2049    0.2935 C   0  0  0  0  0  0  0  0  0  0  0  0
    3.8602   -1.7628    0.2059 N   0  0  0  0  0  0  0  0  0  0  0  0
    2.6777   -1.2510    0.1488 C   0  0  0  0  0  0  0  0  0  0  0  0
    2.4755    0.1252    0.0129 O   0  0  0  0  0  0  0  0  0  0  0  0
    3.5704    1.0089    0.0189 C   0  0  0  0  0  0  0  0  0  0  0  0
    3.5478    2.0371    0.9608 C   0  0  0  0  0  0  0  0  0  0  0  0
    4.5813    2.9715    0.9730 C   0  0  0  0  0  0  0  0  0  0  0  0
    5.6230    2.8713    0.0449 C   0  0  0  0  0  0  0  0  0  0  0  0
    5.6362    1.8381   -0.9019 C   0  0  0  0  0  0  0  0  0  0  0  0
    6.9818    1.7403   -2.0696 S   0  0  0  0  0  0  0  0  0  0  0  0
    7.6384    0.1095   -1.6225 C   0  0  0  0  0  0  0  0  0  0  0  0
    4.5877    0.9144   -0.9299 C   0  0  0  0  0  0  0  0  0  0  0  0
    1.3520   -1.9820    0.1352 C   0  0  2  0  0  0  0  0  0  0  0  0
    0.8086   -2.1586   -1.2748 C   0  0  0  0  0  0  0  0  0  0  0  0
    0.8337   -1.0050   -2.2452 C   0  0  0  0  0  0  0  0  0  0  0  0
    0.2728   -3.2953   -1.6027 N   0  0  0  0  0  0  0  0  0  0  0  0
    0.2992   -1.4007    1.0659 C   0  0  0  0  0  0  0  0  0  0  0  0
    0.4918   -0.4516    1.8191 O   0  0  0  0  0  0  0  0  0  0  0  0
   -0.9038   -2.0848    1.0339 N   0  0  0  0  0  0  0  0  0  0  0  0
   -2.0621   -1.6540    1.7904 C   0  0  0  0  0  0  0  0  0  0  0  0
   -2.8107   -0.4813    1.1177 C   0  0  1  0  0  0  0  0  0  0  0  0
   -3.3384   -0.9099   -0.2635 C   0  0  0  0  0  0  0  0  0  0  0  0
   -4.1490    0.1435   -1.0193 C   0  0  0  0  0  0  0  0  0  0  0  0
   -5.5531    0.3353   -0.4500 C   0  0  0  0  0  0  0  0  0  0  0  0
   -5.6551    1.3404    0.7025 C   0  0  2  0  0  0  0  0  0  0  0  0
   -5.9006    2.7240    0.1340 C   0  0  0  0  0  0  0  0  0  0  0  0
   -5.0661    3.4913   -0.3171 O   0  0  0  0  0  0  0  0  0  0  0  0
   -7.2075    3.0551    0.1254 O   0  0  0  0  0  0  0  0  0  0  0  0
   -4.4695    1.3910    1.6711 C   0  0  0  0  0  0  0  0  0  0  0  0
   -3.9103    0.0253    2.0706 C   0  0  0  0  0  0  0  0  0  0  0  0
  1  2  1  0
  2  3  2  0
  3  4  1  0
  4  5  1  0
  5  6  2  0
  6  7  1  0
  7  8  2  0
  8  9  1  0
  9 10  1  0
 10 11  1  0
  9 12  2  0
 13  3  1  6
 13 14  1  0
 14 15  1  0
 14 16  2  0
 13 17  1  0
 17 18  2  0
 17 19  1  0
 19 20  1  0
 21 20  1  1
 21 22  1  0
 22 23  1  0
 23 24  1  0
 24 25  1  0
 25 26  1  6
 26 27  2  0
 26 28  1  0
 25 29  1  0
 29 30  1  0
 12  5  1  0
 30 21  1  0
M  END
>  <energy>  (387) 
10.88

>  <full_id>  (387) 
MOL00015193-001909-03_1

>  <mol_id>  (387) 
MOL00015193-001909-03

>  <act_mol>  (387) 
0

>  <act_conf>  (387) 
0

$$$$
MOL00015373-001509-04
     RDKit          3D

 33 36  0  0  0  0  0  0  0  0999 V2000
    7.4154   -0.2338   -4.3861 C   0  0  0  0  0  0  0  0  0  0  0  0
    6.4367   -1.1855   -3.9605 O   0  0  0  0  0  0  0  0  0  0  0  0
    5.4469   -0.6559   -3.1799 C   0  0  0  0  0  0  0  0  0  0  0  0
    5.3638    0.5239   -2.8703 O   0  0  0  0  0  0  0  0  0  0  0  0
    4.4834   -1.7549   -2.7860 C   0  0  0  0  0  0  0  0  0  0  0  0
    3.4535   -1.3346   -1.7639 C   0  0  0  0  0  0  0  0  0  0  0  0
    2.1794   -0.9119   -2.1637 C   0  0  0  0  0  0  0  0  0  0  0  0
    1.2235   -0.5255   -1.2147 C   0  0  0  0  0  0  0  0  0  0  0  0
    1.5191   -0.5169    0.1559 C   0  0  0  0  0  0  0  0  0  0  0  0
    2.7882   -0.9583    0.5336 C   0  0  0  0  0  0  0  0  0  0  0  0
    3.7557   -1.3554   -0.3987 C   0  0  0  0  0  0  0  0  0  0  0  0
    3.1691   -1.0728    2.2417 S   0  0  0  0  0  6  0  0  0  0  0  0
    3.8781    0.1269    2.6262 O   0  0  0  0  0  0  0  0  0  0  0  0
    3.6864   -2.3986    2.5037 O   0  0  0  0  0  0  0  0  0  0  0  0
    1.6452   -1.0218    2.9325 N   0  0  0  0  0  0  0  0  0  0  0  0
    0.8490    0.0807    2.4372 C   0  0  2  0  0  0  0  0  0  0  0  0
   -0.4066    0.1596    3.3128 C   0  0  0  0  0  0  0  0  0  0  0  0
   -1.2866    1.3140    2.8896 C   0  0  0  0  0  0  0  0  0  0  0  0
   -1.0329    2.6508    3.5420 C   0  0  0  0  0  0  0  0  0  0  0  0
   -2.2232    1.2474    1.9895 N   0  0  0  0  0  0  0  0  0  0  0  0
   -2.4579    0.0354    1.3882 N   0  0  0  0  0  0  0  0  0  0  0  0
   -3.1708    0.0805    0.1623 C   0  0  0  0  0  0  0  0  0  0  0  0
   -2.5479   -0.5243   -0.8797 N   0  0  0  0  0  0  0  0  0  0  0  0
   -3.0837   -0.4837   -2.1203 N   0  0  0  0  0  0  0  0  0  0  0  0
   -4.2720    0.1349   -2.2975 C   0  0  0  0  0  0  0  0  0  0  0  0
   -5.0151    0.7217   -1.2725 C   0  0  0  0  0  0  0  0  0  0  0  0
   -6.2963    1.3077   -1.4743 C   0  0  0  0  0  0  0  0  0  0  0  0
   -6.8833    1.4183   -2.7536 N   0  0  0  0  0  0  0  0  0  0  0  0
   -6.9226    1.9653   -0.4099 C   0  0  0  0  0  0  0  0  0  0  0  0
   -6.3686    1.9447    0.8634 C   0  0  0  0  0  0  0  0  0  0  0  0
   -5.1468    1.3101    1.0750 C   0  0  0  0  0  0  0  0  0  0  0  0
   -4.4308    0.7081    0.0144 C   0  0  0  0  0  0  0  0  0  0  0  0
    0.4869   -0.2081    1.0611 N   0  0  0  0  0  0  0  0  0  0  0  0
  1  2  1  0
  2  3  1  0
  3  4  2  0
  3  5  1  0
  5  6  1  0
  6  7  2  0
  7  8  1  0
  8  9  2  0
  9 10  1  0
 10 11  2  0
 10 12  1  0
 12 13  2  0
 12 14  2  0
 12 15  1  0
 15 16  1  0
 16 17  1  1
 17 18  1  0
 18 19  1  0
 18 20  2  0
 20 21  1  0
 21 22  1  0
 22 23  2  0
 23 24  1  0
 24 25  2  0
 25 26  1  0
 26 27  2  0
 27 28  1  0
 27 29  1  0
 29 30  2  0
 30 31  1  0
 31 32  2  0
 16 33  1  0
 11  6  1  0
 32 22  1  0
 33  9  1  0
 32 26  1  0
M  END
>  <energy>  (388) 
-37.93

>  <full_id>  (388) 
MOL00015373-001509-04_1

>  <mol_id>  (388) 
MOL00015373-001509-04

>  <act_mol>  (388) 
0

>  <act_conf>  (388) 
0

$$$$
MOL00015265-000032-02
     RDKit          3D

 29 31  0  0  0  0  0  0  0  0999 V2000
    2.8466   -2.9967   -3.0927 C   0  0  0  0  0  0  0  0  0  0  0  0
    2.9908   -1.5276   -2.6653 C   0  0  0  0  0  0  0  0  0  0  0  0
    1.5886   -0.9246   -2.5018 C   0  0  0  0  0  0  0  0  0  0  0  0
    3.8143   -0.7850   -3.7286 C   0  0  0  0  0  0  0  0  0  0  0  0
    3.6925   -1.5771   -1.3942 O   0  0  0  0  0  0  0  0  0  0  0  0
    3.9909   -0.4376   -0.7321 C   0  0  0  0  0  0  0  0  0  0  0  0
    3.7311    0.7043   -1.0840 O   0  0  0  0  0  0  0  0  0  0  0  0
    4.5851   -0.7432    0.4553 N   0  0  0  0  0  0  0  0  0  0  0  0
    4.9314    0.2704    1.4359 C   0  0  0  0  0  0  0  0  0  0  0  0
    3.7167    0.7000    2.2653 C   0  0  0  0  0  0  0  0  0  0  0  0
    3.7032    0.6369    3.4931 O   0  0  0  0  0  0  0  0  0  0  0  0
    2.6751    1.2184    1.5210 N   0  0  0  0  0  0  0  0  0  0  0  0
    1.4259    1.7147    2.1261 C   0  0  1  0  0  0  0  0  0  0  0  0
    0.3285    2.0562    1.0894 C   0  0  0  0  0  0  0  0  0  0  0  0
   -0.2119    0.6180    1.2684 C   0  0  2  0  0  0  0  0  0  0  0  0
   -1.6830    0.5188    1.3253 N   0  0  0  0  0  0  0  0  0  0  0  0
   -2.4539    0.5402    0.1758 C   0  0  0  0  0  0  0  0  0  0  0  0
   -1.9564    0.7389   -0.9324 O   0  0  0  0  0  0  0  0  0  0  0  0
   -3.9510    0.4492    0.3691 C   0  0  1  0  0  0  0  0  0  0  0  0
   -4.4886    1.6640    1.1683 C   0  0  0  0  0  0  0  0  0  0  0  0
   -6.0167    1.6732    1.3415 C   0  0  0  0  0  0  0  0  0  0  0  0
   -6.6261    0.3032    1.6781 C   0  0  0  0  0  0  0  0  0  0  0  0
   -6.0220   -0.8010    0.8621 N   0  0  0  0  0  0  0  0  0  0  0  0
   -6.0549   -0.4905   -0.6110 C   0  0  0  0  0  0  0  0  0  0  0  0
   -4.7394    0.2505   -0.9487 C   0  0  0  0  0  0  0  0  0  0  0  0
   -4.3372   -1.0458    1.2438 S   0  0  0  0  0  6  0  0  0  0  0  0
   -4.1149   -0.8770    2.6612 O   0  0  0  0  0  0  0  0  0  0  0  0
   -3.8649   -2.1980    0.5094 O   0  0  0  0  0  0  0  0  0  0  0  0
    0.4804    0.6075    2.6508 C   0  0  0  0  0  0  0  0  0  0  0  0
  2  1  1  0
  2  3  1  0
  2  4  1  0
  2  5  1  0
  5  6  1  0
  6  7  2  0
  6  8  1  0
  8  9  1  0
  9 10  1  0
 10 11  2  0
 10 12  1  0
 13 12  1  6
 13 14  1  0
 14 15  1  0
 15 16  1  1
 16 17  1  0
 17 18  2  0
 19 17  1  6
 19 20  1  0
 20 21  1  0
 21 22  1  0
 22 23  1  0
 23 24  1  0
 24 25  1  0
 26 23  1  0
 26 27  2  0
 26 28  2  0
 15 29  1  0
 29 13  1  0
 25 19  1  0
 26 19  1  0
M  END
>  <energy>  (389) 
-107.70

>  <full_id>  (389) 
MOL00015265-000032-02_1

>  <mol_id>  (389) 
MOL00015265-000032-02

>  <act_mol>  (389) 
0

>  <act_conf>  (389) 
0

$$$$
MOL00015503-000128-02
     RDKit          3D

 32 36  0  0  0  0  0  0  0  0999 V2000
   10.2844    2.2041   -1.1041 C   0  0  0  0  0  0  0  0  0  0  0  0
    9.3844    1.1858   -0.6812 O   0  0  0  0  0  0  0  0  0  0  0  0
    8.1113    1.2421   -1.1928 C   0  0  0  0  0  0  0  0  0  0  0  0
    7.6155    2.2218   -2.0504 C   0  0  0  0  0  0  0  0  0  0  0  0
    6.2985    2.1410   -2.5075 C   0  0  0  0  0  0  0  0  0  0  0  0
    5.4732    1.0871   -2.1055 C   0  0  0  0  0  0  0  0  0  0  0  0
    5.9390    0.1006   -1.2222 C   0  0  0  0  0  0  0  0  0  0  0  0
    5.0666   -1.0676   -0.8198 C   0  0  0  0  0  0  0  0  0  0  0  0
    3.6588   -0.6832   -0.6574 N   0  0  0  0  0  0  0  0  0  0  0  0
    2.8420   -1.8416   -0.3039 C   0  0  0  0  0  0  0  0  0  0  0  0
    1.3932   -1.4392   -0.1376 C   0  0  0  0  0  0  0  0  0  0  0  0
    0.7513   -1.5750    1.0944 C   0  0  0  0  0  0  0  0  0  0  0  0
   -0.5896   -1.2004    1.2526 C   0  0  0  0  0  0  0  0  0  0  0  0
   -1.3236   -0.6694    0.1626 C   0  0  0  0  0  0  0  0  0  0  0  0
   -2.6926   -0.1998    0.0339 C   0  0  0  0  0  0  0  0  0  0  0  0
   -3.6984   -0.1770    1.1154 C   0  0  0  0  0  0  0  0  0  0  0  0
   -3.4655   -0.5343    2.2668 O   0  0  0  0  0  0  0  0  0  0  0  0
   -4.9301    0.3009    0.7145 N   0  0  0  0  0  0  0  0  0  0  0  0
   -6.0080    0.5773    1.6476 C   0  0  2  0  0  0  0  0  0  0  0  0
   -7.3871    0.6459    0.9395 C   0  0  0  0  0  0  0  0  0  0  0  0
   -8.0988    1.9188    1.2143 N   0  0  0  0  0  0  0  0  0  0  0  0
   -7.2648    3.0377    0.7239 C   0  0  0  0  0  0  0  0  0  0  0  0
   -5.8954    3.0806    1.4197 C   0  0  0  0  0  0  0  0  0  0  0  0
   -5.7820    1.9058    2.4076 C   0  0  0  0  0  0  0  0  0  0  0  0
   -6.9295    2.0550    3.4212 C   0  0  0  0  0  0  0  0  0  0  0  0
   -8.2751    2.0592    2.6767 C   0  0  0  0  0  0  0  0  0  0  0  0
   -3.0397    0.2550   -1.1812 N   0  0  0  0  0  0  0  0  0  0  0  0
   -1.7525    0.1202   -2.2022 S   0  0  0  0  0  0  0  0  0  0  0  0
   -0.6604   -0.5439   -1.0596 C   0  0  0  0  0  0  0  0  0  0  0  0
    0.6818   -0.9218   -1.2331 C   0  0  0  0  0  0  0  0  0  0  0  0
    7.2675    0.1919   -0.7924 C   0  0  0  0  0  0  0  0  0  0  0  0
    7.7739   -0.7765    0.0392 O   0  0  0  0  0  0  0  0  0  0  0  0
  1  2  1  0
  2  3  1  0
  3  4  2  0
  4  5  1  0
  5  6  2  0
  6  7  1  0
  7  8  1  0
  8  9  1  0
  9 10  1  0
 10 11  1  0
 11 12  2  0
 12 13  1  0
 13 14  2  0
 14 15  1  0
 15 16  1  0
 16 17  2  0
 16 18  1  0
 19 18  1  6
 19 20  1  0
 20 21  1  0
 21 22  1  0
 22 23  1  0
 24 23  1  0
 24 25  1  0
 25 26  1  0
 15 27  2  0
 27 28  1  0
 28 29  1  0
 29 30  2  0
  7 31  2  0
 31 32  1  0
 31  3  1  0
 30 11  1  0
 29 14  1  0
 24 19  1  0
 26 21  1  0
M  END
>  <energy>  (390) 
79.99

>  <full_id>  (390) 
MOL00015503-000128-02_1

>  <mol_id>  (390) 
MOL00015503-000128-02

>  <act_mol>  (390) 
0

>  <act_conf>  (390) 
0

$$$$
MOL00015571-000733-02
     RDKit          3D

 35 37  0  0  0  0  0  0  0  0999 V2000
    6.3000    0.4048    1.6662 O   0  0  0  0  0  0  0  0  0  0  0  0
    5.2681    0.9380    1.2636 C   0  0  0  0  0  0  0  0  0  0  0  0
    4.1683    1.3410    2.2334 C   0  0  0  0  0  0  0  0  0  0  0  0
    3.0555    0.3024    2.3254 C   0  0  0  0  0  0  0  0  0  0  0  0
    1.6721    0.8509    1.9988 C   0  0  0  0  0  0  0  0  0  0  0  0
    1.4198    0.9154    0.4980 C   0  0  0  0  0  0  0  0  0  0  0  0
    2.2716    1.3586   -0.2686 O   0  0  0  0  0  0  0  0  0  0  0  0
    0.1678    0.4587    0.1551 N   0  0  0  0  0  0  0  0  0  0  0  0
   -0.3778    0.2310   -1.1295 C   0  0  0  0  0  0  0  0  0  0  0  0
    0.3606    0.4561   -2.2963 C   0  0  0  0  0  0  0  0  0  0  0  0
   -0.1801    0.1554   -3.5438 C   0  0  0  0  0  0  0  0  0  0  0  0
   -1.4556   -0.3786   -3.6337 C   0  0  0  0  0  0  0  0  0  0  0  0
   -1.9615   -0.6910   -4.8342 F   0  0  0  0  0  0  0  0  0  0  0  0
   -2.2211   -0.5979   -2.5025 C   0  0  0  0  0  0  0  0  0  0  0  0
   -1.7030   -0.2724   -1.2399 C   0  0  0  0  0  0  0  0  0  0  0  0
   -2.5405   -0.4784   -0.0145 C   0  0  0  0  0  0  0  0  0  0  0  0
   -1.9620   -0.6537    1.0529 O   0  0  0  0  0  0  0  0  0  0  0  0
   -3.9117   -0.3920   -0.1854 N   0  0  0  0  0  0  0  0  0  0  0  0
   -4.9052   -0.5557    0.8019 C   0  0  0  0  0  0  0  0  0  0  0  0
   -6.2345   -0.3598    0.4059 C   0  0  0  0  0  0  0  0  0  0  0  0
   -7.2812   -0.4940    1.3230 C   0  0  0  0  0  0  0  0  0  0  0  0
   -7.0098   -0.8271    2.6532 C   0  0  0  0  0  0  0  0  0  0  0  0
   -8.0814   -0.9618    3.6664 C   0  0  0  0  0  0  0  0  0  0  0  0
   -7.9325   -1.2803    4.8288 O   0  0  0  0  0  0  0  0  0  0  0  0
   -9.2942   -0.6635    3.1776 O   0  0  0  0  0  0  0  0  0  0  0  0
   -5.6862   -1.0283    3.0524 C   0  0  0  0  0  0  0  0  0  0  0  0
   -4.6423   -0.8954    2.1311 C   0  0  0  0  0  0  0  0  0  0  0  0
    4.9538    1.2319   -0.0487 N   0  0  0  0  0  0  0  0  0  0  0  0
    5.7798    1.0907   -1.1829 C   0  0  0  0  0  0  0  0  0  0  0  0
    7.0995    0.6518   -1.1398 C   0  0  0  0  0  0  0  0  0  0  0  0
    7.8085    0.5810   -2.3294 C   0  0  0  0  0  0  0  0  0  0  0  0
    7.3015    0.9260   -3.5332 N   0  0  0  0  0  0  0  0  0  0  0  0
    6.0300    1.3511   -3.5350 C   0  0  0  0  0  0  0  0  0  0  0  0
    5.4189    1.7872   -5.0864 Cl  0  0  0  0  0  0  0  0  0  0  0  0
    5.2322    1.4469   -2.4118 C   0  0  0  0  0  0  0  0  0  0  0  0
  1  2  2  0
  2  3  1  0
  3  4  1  0
  4  5  1  0
  5  6  1  0
  6  7  2  0
  6  8  1  0
  8  9  1  0
  9 10  2  0
 10 11  1  0
 11 12  2  0
 12 13  1  0
 12 14  1  0
 14 15  2  0
 15 16  1  0
 16 17  2  0
 16 18  1  0
 18 19  1  0
 19 20  2  0
 20 21  1  0
 21 22  2  0
 22 23  1  0
 23 24  2  0
 23 25  1  0
 22 26  1  0
 26 27  2  0
  2 28  1  0
 28 29  1  0
 29 30  2  0
 30 31  1  0
 31 32  2  0
 32 33  1  0
 33 34  1  0
 33 35  2  0
 15  9  1  0
 27 19  1  0
 35 29  1  0
M  END
>  <energy>  (391) 
-15.55

>  <full_id>  (391) 
MOL00015571-000733-02_1

>  <mol_id>  (391) 
MOL00015571-000733-02

>  <act_mol>  (391) 
0

>  <act_conf>  (391) 
0

$$$$
MOL00015995-001904-03
     RDKit          3D

 27 29  0  0  0  0  0  0  0  0999 V2000
   -1.1215    2.4264   -0.4004 C   0  0  0  0  0  0  0  0  0  0  0  0
   -2.2137    2.0246   -1.2196 O   0  0  0  0  0  0  0  0  0  0  0  0
   -2.8422    0.8480   -0.9002 C   0  0  0  0  0  0  0  0  0  0  0  0
   -2.5854    0.1166    0.2682 C   0  0  0  0  0  0  0  0  0  0  0  0
   -3.2741   -1.0684    0.4781 C   0  0  0  0  0  0  0  0  0  0  0  0
   -4.2248   -1.5064   -0.4385 C   0  0  0  0  0  0  0  0  0  0  0  0
   -4.5179   -0.8139   -1.5909 C   0  0  0  0  0  0  0  0  0  0  0  0
   -3.8125    0.3742   -1.8179 C   0  0  0  0  0  0  0  0  0  0  0  0
   -4.2060    1.3310   -3.4154 Br  0  0  0  0  0  0  0  0  0  0  0  0
   -4.7842   -2.6962   -0.0025 N   0  0  0  0  0  0  0  0  0  0  0  0
   -4.2342   -3.1006    1.2070 C   0  0  0  0  0  0  0  0  0  0  0  0
   -4.5238   -4.1201    1.8112 O   0  0  0  0  0  0  0  0  0  0  0  0
   -3.1991   -2.0431    1.6290 C   0  0  1  0  0  0  0  0  0  0  0  0
   -1.8461   -2.7280    1.8191 C   0  0  0  0  0  0  0  0  0  0  0  0
   -0.8571   -1.8091    2.3807 N   0  0  0  0  0  0  0  0  0  0  0  0
    0.2928   -1.4728    1.7615 C   0  0  0  0  0  0  0  0  0  0  0  0
    0.7535   -1.7373    0.4549 C   0  0  0  0  0  0  0  0  0  0  0  0
    1.9663   -1.2186    0.2284 N   0  0  0  0  0  0  0  0  0  0  0  0
    2.2684   -0.6085    1.3990 N   0  0  0  0  0  0  0  0  0  0  0  0
    3.5560    0.0388    1.5615 C   0  0  0  0  0  0  0  0  0  0  0  0
    3.7112    1.2350    0.6488 C   0  0  0  0  0  0  0  0  0  0  0  0
    3.9186    2.3643    1.0886 O   0  0  0  0  0  0  0  0  0  0  0  0
    3.6712    0.9398   -0.7004 N   0  0  0  0  0  0  0  0  0  0  0  0
    3.7241    1.9749   -1.7212 C   0  0  0  0  0  0  0  0  0  0  0  0
    2.3601    2.6387   -1.8916 C   0  0  0  0  0  0  0  0  0  0  0  0
    4.2039    1.3789   -3.0407 C   0  0  0  0  0  0  0  0  0  0  0  0
    1.2896   -0.7339    2.3446 C   0  0  0  0  0  0  0  0  0  0  0  0
  1  2  1  0
  2  3  1  0
  3  4  2  0
  4  5  1  0
  5  6  2  0
  6  7  1  0
  7  8  2  0
  8  9  1  0
  6 10  1  0
 10 11  1  0
 11 12  2  0
 11 13  1  0
 13 14  1  6
 14 15  1  0
 15 16  1  0
 16 17  1  0
 17 18  2  0
 18 19  1  0
 19 20  1  0
 20 21  1  0
 21 22  2  0
 21 23  1  0
 23 24  1  0
 24 25  1  0
 24 26  1  0
 19 27  1  0
  8  3  1  0
 27 16  2  0
 13  5  1  0
M  END
>  <energy>  (392) 
24.95

>  <full_id>  (392) 
MOL00015995-001904-03_1

>  <mol_id>  (392) 
MOL00015995-001904-03

>  <act_mol>  (392) 
0

>  <act_conf>  (392) 
0

$$$$
MOL00016020-001326-04
     RDKit          3D

 30 33  0  0  0  0  0  0  0  0999 V2000
   -3.9247    3.3821    1.7883 C   0  0  0  0  0  0  0  0  0  0  0  0
   -3.5988    2.0167    1.2726 C   0  0  0  0  0  0  0  0  0  0  0  0
   -2.6706    1.2050    1.9237 C   0  0  0  0  0  0  0  0  0  0  0  0
   -2.0845    1.6346    3.0504 F   0  0  0  0  0  0  0  0  0  0  0  0
   -2.3333   -0.0560    1.4346 C   0  0  0  0  0  0  0  0  0  0  0  0
   -2.9245   -0.5276    0.2583 C   0  0  0  0  0  0  0  0  0  0  0  0
   -2.5723   -1.8341   -0.2648 C   0  0  0  0  0  0  0  0  0  0  0  0
   -1.3001   -2.3761   -0.6310 C   0  0  0  0  0  0  0  0  0  0  0  0
   -0.1154   -1.6768   -0.5654 N   0  0  0  0  0  0  0  0  0  0  0  0
    1.1351   -2.1498   -0.8956 C   0  0  0  0  0  0  0  0  0  0  0  0
    1.4526   -3.2620   -1.2960 O   0  0  0  0  0  0  0  0  0  0  0  0
    2.1956   -1.1058   -0.7080 C   0  0  0  0  0  0  0  0  0  0  0  0
    3.5169   -1.3880   -0.9988 C   0  0  0  0  0  0  0  0  0  0  0  0
    4.4572   -0.3790   -0.8014 C   0  0  0  0  0  0  0  0  0  0  0  0
    5.9014   -0.6598   -1.1102 C   0  0  0  0  0  0  0  0  0  0  0  0
    4.0067    0.8859   -0.3109 C   0  0  0  0  0  0  0  0  0  0  0  0
    4.7709    2.0231   -0.0431 C   0  0  0  0  0  0  0  0  0  0  0  0
    6.1155    2.0497   -0.2339 O   0  0  0  0  0  0  0  0  0  0  0  0
    4.3115    3.1893    0.4167 N   0  0  0  0  0  0  0  0  0  0  0  0
    2.9955    3.2166    0.6218 C   0  0  0  0  0  0  0  0  0  0  0  0
    2.1479    2.2070    0.4081 N   0  0  0  0  0  0  0  0  0  0  0  0
    2.6449    1.0661   -0.0482 C   0  0  0  0  0  0  0  0  0  0  0  0
    1.7594    0.0950   -0.2417 N   0  0  0  0  0  0  0  0  0  0  0  0
   -1.4180   -3.6359   -1.0525 N   0  0  0  0  0  0  0  0  0  0  0  0
   -2.7302   -3.8914   -0.9825 N   0  0  0  0  0  0  0  0  0  0  0  0
   -3.4752   -2.8527   -0.4957 C   0  0  0  0  0  0  0  0  0  0  0  0
   -4.8129   -2.9533   -0.3289 N   0  0  0  0  0  0  0  0  0  0  0  0
   -3.8462    0.2812   -0.4144 C   0  0  0  0  0  0  0  0  0  0  0  0
   -4.1678    1.5385    0.0930 C   0  0  0  0  0  0  0  0  0  0  0  0
   -5.0468    2.2967   -0.5780 F   0  0  0  0  0  0  0  0  0  0  0  0
  1  2  1  0
  2  3  2  0
  3  4  1  0
  3  5  1  0
  5  6  2  0
  6  7  1  0
  7  8  1  0
  8  9  1  0
  9 10  1  0
 10 11  2  0
 10 12  1  0
 12 13  2  0
 13 14  1  0
 14 15  1  0
 14 16  2  0
 16 17  1  0
 17 18  1  0
 17 19  2  0
 19 20  1  0
 20 21  2  0
 21 22  1  0
 22 23  2  0
  8 24  2  0
 24 25  1  0
 25 26  1  0
 26 27  1  0
  6 28  1  0
 28 29  2  0
 29 30  1  0
 29  2  1  0
 26  7  2  0
 23 12  1  0
 22 16  1  0
M  END
>  <energy>  (393) 
-15.52

>  <full_id>  (393) 
MOL00016020-001326-04_1

>  <mol_id>  (393) 
MOL00016020-001326-04

>  <act_mol>  (393) 
0

>  <act_conf>  (393) 
0

$$$$
MOL00016042-000129-03
     RDKit          3D

 29 32  0  0  0  0  0  0  0  0999 V2000
   -3.3708    1.7888    2.3310 C   0  0  0  0  0  0  0  0  0  0  0  0
   -3.0239    1.8789    0.9177 N   0  0  0  0  0  0  0  0  0  0  0  0
   -2.0986    2.9532    0.5468 C   0  0  0  0  0  0  0  0  0  0  0  0
   -0.6357    2.5327    0.7258 C   0  0  0  0  0  0  0  0  0  0  0  0
    0.0522    3.0277    1.6136 O   0  0  0  0  0  0  0  0  0  0  0  0
   -0.2537    1.5840   -0.1971 N   0  0  0  0  0  0  0  0  0  0  0  0
    0.9943    1.0366   -0.2319 C   0  0  0  0  0  0  0  0  0  0  0  0
    2.0369    1.3042    0.5066 N   0  0  0  0  0  0  0  0  0  0  0  0
    3.0963    0.5019    0.1202 C   0  0  0  0  0  0  0  0  0  0  0  0
    4.3873    0.5100    0.6851 C   0  0  0  0  0  0  0  0  0  0  0  0
    5.3632   -0.3541    0.1842 C   0  0  0  0  0  0  0  0  0  0  0  0
    5.0609   -1.2449   -0.8476 C   0  0  0  0  0  0  0  0  0  0  0  0
    3.7932   -1.2624   -1.4333 C   0  0  0  0  0  0  0  0  0  0  0  0
    2.8236   -0.3800   -0.9302 C   0  0  0  0  0  0  0  0  0  0  0  0
    1.1850   -0.1679   -1.4223 S   0  0  0  0  0  0  0  0  0  0  0  0
    5.9703   -2.1405   -1.3551 O   0  0  0  0  0  0  0  0  0  0  0  0
    7.1019   -2.2876   -0.4895 C   0  0  0  0  0  0  0  0  0  0  0  0
    7.5993   -0.9299   -0.0246 C   0  0  0  0  0  0  0  0  0  0  0  0
    6.6031   -0.2748    0.7680 O   0  0  0  0  0  0  0  0  0  0  0  0
   -3.3478    0.9312   -0.0450 C   0  0  0  0  0  0  0  0  0  0  0  0
   -2.7405    0.8575   -1.1148 O   0  0  0  0  0  0  0  0  0  0  0  0
   -4.4106   -0.0566    0.2105 C   0  0  0  0  0  0  0  0  0  0  0  0
   -4.1376   -1.4110   -0.0124 C   0  0  0  0  0  0  0  0  0  0  0  0
   -5.1456   -2.3526    0.1875 C   0  0  0  0  0  0  0  0  0  0  0  0
   -4.8165   -4.0210   -0.0686 Cl  0  0  0  0  0  0  0  0  0  0  0  0
   -6.4218   -1.9542    0.5917 C   0  0  0  0  0  0  0  0  0  0  0  0
   -6.6963   -0.5996    0.7902 C   0  0  0  0  0  0  0  0  0  0  0  0
   -5.6914    0.3439    0.5912 C   0  0  0  0  0  0  0  0  0  0  0  0
   -5.9840    1.6398    0.7687 F   0  0  0  0  0  0  0  0  0  0  0  0
  1  2  1  0
  2  3  1  0
  3  4  1  0
  4  5  2  0
  4  6  1  0
  6  7  1  0
  7  8  2  0
  8  9  1  0
  9 10  2  0
 10 11  1  0
 11 12  2  0
 12 13  1  0
 13 14  2  0
 14 15  1  0
 12 16  1  0
 16 17  1  0
 17 18  1  0
 18 19  1  0
  2 20  1  0
 20 21  2  0
 20 22  1  0
 22 23  2  0
 23 24  1  0
 24 25  1  0
 24 26  2  0
 26 27  1  0
 27 28  2  0
 28 29  1  0
 15  7  1  0
 28 22  1  0
 14  9  1  0
 19 11  1  0
M  END
>  <energy>  (394) 
23.59

>  <full_id>  (394) 
MOL00016042-000129-03_1

>  <mol_id>  (394) 
MOL00016042-000129-03

>  <act_mol>  (394) 
0

>  <act_conf>  (394) 
0

$$$$
MOL00015935-001384-04
     RDKit          3D

 32 34  0  0  0  0  0  0  0  0999 V2000
   -1.4290    2.8429    2.8328 C   0  0  0  0  0  0  0  0  0  0  0  0
   -0.2896    2.4197    1.9098 C   0  0  0  0  0  0  0  0  0  0  0  0
   -0.7518    2.1418    0.5360 N   0  0  0  0  0  0  0  0  0  0  0  0
   -1.5024    0.8694    0.4706 C   0  0  0  0  0  0  0  0  0  0  0  0
   -2.0685    0.5890   -0.9201 C   0  0  0  0  0  0  0  0  0  0  0  0
   -1.3720    0.3582   -1.9081 O   0  0  0  0  0  0  0  0  0  0  0  0
   -3.5430    0.5137   -1.0479 C   0  0  0  0  0  0  0  0  0  0  0  0
   -4.1459   -0.7545   -1.1831 C   0  0  0  0  0  0  0  0  0  0  0  0
   -3.3322   -2.0195   -1.2400 C   0  0  0  0  0  0  0  0  0  0  0  0
   -5.5431   -0.8292   -1.2940 C   0  0  0  0  0  0  0  0  0  0  0  0
   -6.3256    0.3301   -1.2588 C   0  0  0  0  0  0  0  0  0  0  0  0
   -7.7534    0.2370   -1.3590 C   0  0  0  0  0  0  0  0  0  0  0  0
   -8.9089    0.1622   -1.4348 N   0  0  0  0  0  0  0  0  0  0  0  0
   -5.7125    1.5811   -1.1283 C   0  0  0  0  0  0  0  0  0  0  0  0
   -4.3152    1.6923   -1.0391 C   0  0  0  0  0  0  0  0  0  0  0  0
   -3.7005    3.0590   -0.9126 C   0  0  0  0  0  0  0  0  0  0  0  0
    0.3798    2.2412   -0.4223 C   0  0  0  0  0  0  0  0  0  0  0  0
    1.3924    1.1069   -0.2944 C   0  0  0  0  0  0  0  0  0  0  0  0
    2.3401    1.1519    0.5887 N   0  0  0  0  0  0  0  0  0  0  0  0
    3.2343    0.0695    0.6520 C   0  0  0  0  0  0  0  0  0  0  0  0
    4.2746    0.1124    1.5823 C   0  0  0  0  0  0  0  0  0  0  0  0
    5.1846   -0.9480    1.6892 C   0  0  0  0  0  0  0  0  0  0  0  0
    6.2300   -0.9834    2.5792 O   0  0  0  0  0  0  0  0  0  0  0  0
    6.4099    0.1389    3.4310 C   0  0  0  0  0  0  0  0  0  0  0  0
    5.0525   -2.0739    0.8470 C   0  0  0  0  0  0  0  0  0  0  0  0
    5.9826   -3.0687    1.0192 O   0  0  0  0  0  0  0  0  0  0  0  0
    5.9167   -4.1915    0.1509 C   0  0  0  0  0  0  0  0  0  0  0  0
    4.0128   -2.1208   -0.0840 C   0  0  0  0  0  0  0  0  0  0  0  0
    3.1176   -1.0504   -0.1714 C   0  0  0  0  0  0  0  0  0  0  0  0
    2.0032   -1.0725   -1.1340 C   0  0  0  0  0  0  0  0  0  0  0  0
    1.7805   -2.0480   -1.8405 O   0  0  0  0  0  0  0  0  0  0  0  0
    1.2277    0.0565   -1.1605 N   0  0  0  0  0  0  0  0  0  0  0  0
  1  2  1  0
  2  3  1  0
  3  4  1  0
  4  5  1  0
  5  6  2  0
  5  7  1  0
  7  8  2  0
  8  9  1  0
  8 10  1  0
 10 11  2  0
 11 12  1  0
 12 13  3  0
 11 14  1  0
 14 15  2  0
 15 16  1  0
  3 17  1  0
 17 18  1  0
 18 19  2  0
 19 20  1  0
 20 21  2  0
 21 22  1  0
 22 23  1  0
 23 24  1  0
 22 25  2  0
 25 26  1  0
 26 27  1  0
 25 28  1  0
 28 29  2  0
 29 30  1  0
 30 31  2  0
 30 32  1  0
 15  7  1  0
 32 18  1  0
 29 20  1  0
M  END
>  <energy>  (395) 
112.55

>  <full_id>  (395) 
MOL00015935-001384-04_1

>  <mol_id>  (395) 
MOL00015935-001384-04

>  <act_mol>  (395) 
0

>  <act_conf>  (395) 
0

$$$$
MOL00016007-000910-03
     RDKit          3D

 30 32  0  0  0  0  0  0  0  0999 V2000
   -2.5300   -2.1310   -2.2119 C   0  0  0  0  0  0  0  0  0  0  0  0
   -1.3967   -1.9257   -1.2030 C   0  0  0  0  0  0  0  0  0  0  0  0
   -1.4395   -3.0306   -0.1417 C   0  0  0  0  0  0  0  0  0  0  0  0
   -1.4292   -0.5041   -0.5934 C   0  0  1  0  0  0  0  0  0  0  0  0
   -2.5802   -0.2930    0.2822 N   0  0  0  0  0  0  0  0  0  0  0  0
   -3.6954    0.3997   -0.1297 C   0  0  0  0  0  0  0  0  0  0  0  0
   -3.8466    0.8081   -1.2756 O   0  0  0  0  0  0  0  0  0  0  0  0
   -4.7297    0.6696    0.9084 C   0  0  0  0  0  0  0  0  0  0  0  0
   -4.8808   -0.1436    2.0396 C   0  0  0  0  0  0  0  0  0  0  0  0
   -5.8685    0.1486    2.9838 C   0  0  0  0  0  0  0  0  0  0  0  0
   -6.7109    1.2449    2.7995 C   0  0  0  0  0  0  0  0  0  0  0  0
   -6.5749    2.0483    1.6682 C   0  0  0  0  0  0  0  0  0  0  0  0
   -5.5898    1.7596    0.7221 C   0  0  0  0  0  0  0  0  0  0  0  0
   -0.1517   -0.2117    0.2334 C   0  0  0  0  0  0  0  0  0  0  0  0
   -0.1982   -0.1485    1.4620 O   0  0  0  0  0  0  0  0  0  0  0  0
    0.9803   -0.0704   -0.5478 N   0  0  0  0  0  0  0  0  0  0  0  0
    2.3161    0.1780   -0.1416 C   0  0  0  0  0  0  0  0  0  0  0  0
    2.6702    0.3199    1.2055 C   0  0  0  0  0  0  0  0  0  0  0  0
    3.9953    0.5665    1.5899 C   0  0  0  0  0  0  0  0  0  0  0  0
    4.9984    0.6754    0.6242 C   0  0  0  0  0  0  0  0  0  0  0  0
    6.3470    0.9242    0.9899 N   0  0  0  0  0  0  0  0  0  0  0  0
    6.8897    1.0946    2.2411 C   0  0  0  0  0  0  0  0  0  0  0  0
    8.1841    1.3043    2.1585 N   0  0  0  0  0  0  0  0  0  0  0  0
    8.4077    1.2560    0.8173 C   0  0  0  0  0  0  0  0  0  0  0  0
    7.3320    1.0285    0.0635 N   0  0  0  0  0  0  0  0  0  0  0  0
    4.6636    0.5354   -0.7302 C   0  0  0  0  0  0  0  0  0  0  0  0
    3.3336    0.2882   -1.1187 C   0  0  0  0  0  0  0  0  0  0  0  0
    3.0034    0.1391   -2.5640 C   0  0  0  0  0  0  0  0  0  0  0  0
    1.8929   -0.1006   -3.0087 O   0  0  0  0  0  0  0  0  0  0  0  0
    4.0600    0.2960   -3.3779 O   0  0  0  0  0  0  0  0  0  0  0  0
  2  1  1  0
  2  3  1  0
  2  4  1  0
  4  5  1  1
  5  6  1  0
  6  7  2  0
  6  8  1  0
  8  9  2  0
  9 10  1  0
 10 11  2  0
 11 12  1  0
 12 13  2  0
  4 14  1  0
 14 15  2  0
 14 16  1  0
 16 17  1  0
 17 18  2  0
 18 19  1  0
 19 20  2  0
 20 21  1  0
 21 22  1  0
 22 23  2  0
 23 24  1  0
 24 25  2  0
 20 26  1  0
 26 27  2  0
 27 28  1  0
 28 29  2  0
 28 30  1  0
 13  8  1  0
 27 17  1  0
 25 21  1  0
M  END
>  <energy>  (396) 
66.48

>  <full_id>  (396) 
MOL00016007-000910-03_1

>  <mol_id>  (396) 
MOL00016007-000910-03

>  <act_mol>  (396) 
0

>  <act_conf>  (396) 
0

$$$$
MOL00016101-001161-03
     RDKit          3D

 32 35  0  0  0  0  0  0  0  0999 V2000
    5.1093   -1.3586    0.9910 O   0  0  0  0  0  0  0  0  0  0  0  0
    4.4597   -0.3603    0.6941 C   0  0  0  0  0  0  0  0  0  0  0  0
    3.7842    0.4796    1.7684 C   0  0  0  0  0  0  0  0  0  0  0  0
    2.2781    0.4700    1.6671 C   0  0  0  0  0  0  0  0  0  0  0  0
    1.5708    1.6503    1.4340 C   0  0  0  0  0  0  0  0  0  0  0  0
    0.1763    1.6341    1.3334 C   0  0  0  0  0  0  0  0  0  0  0  0
   -0.5432    0.4422    1.4643 C   0  0  0  0  0  0  0  0  0  0  0  0
   -1.9479    0.3909    1.3510 N   0  0  0  0  0  0  0  0  0  0  0  0
   -2.8430    1.4251    1.1453 C   0  0  0  0  0  0  0  0  0  0  0  0
   -2.5745    2.6143    1.0265 O   0  0  0  0  0  0  0  0  0  0  0  0
   -4.2653    0.9009    1.0808 C   0  0  0  0  0  0  0  0  0  0  0  0
   -4.4466   -0.4851    1.2535 N   0  0  0  0  0  0  0  0  0  0  0  0
   -5.6711   -0.9173    1.1901 C   0  0  0  0  0  0  0  0  0  0  0  0
   -6.7663   -0.1353    0.9751 N   0  0  0  0  0  0  0  0  0  0  0  0
   -6.6278    1.2035    0.8068 C   0  0  0  0  0  0  0  0  0  0  0  0
   -7.5275    2.1239    0.5922 N   0  0  0  0  0  0  0  0  0  0  0  0
   -6.7964    3.3033    0.5034 C   0  0  0  0  0  0  0  0  0  0  0  0
   -5.4683    3.1680    0.6526 C   0  0  0  0  0  0  0  0  0  0  0  0
   -5.2632    1.7738    0.8638 C   0  0  0  0  0  0  0  0  0  0  0  0
    0.1595   -0.7575    1.7096 C   0  0  0  0  0  0  0  0  0  0  0  0
   -0.5428   -2.0782    1.9187 C   0  0  0  0  0  0  0  0  0  0  0  0
   -1.4244   -2.3672    0.8398 O   0  0  0  0  0  0  0  0  0  0  0  0
    1.5637   -0.7259    1.8133 C   0  0  0  0  0  0  0  0  0  0  0  0
    4.2665    0.1363   -0.5818 N   0  0  0  0  0  0  0  0  0  0  0  0
    4.7651   -0.3839   -1.7956 C   0  0  0  0  0  0  0  0  0  0  0  0
    5.6055   -1.4919   -1.8940 C   0  0  0  0  0  0  0  0  0  0  0  0
    6.0389   -1.9180   -3.1497 C   0  0  0  0  0  0  0  0  0  0  0  0
    6.8467   -2.9828   -3.2391 F   0  0  0  0  0  0  0  0  0  0  0  0
    5.6525   -1.2615   -4.3152 C   0  0  0  0  0  0  0  0  0  0  0  0
    4.8154   -0.1532   -4.2281 C   0  0  0  0  0  0  0  0  0  0  0  0
    4.3820    0.2739   -2.9750 C   0  0  0  0  0  0  0  0  0  0  0  0
    3.5766    1.3456   -2.8994 F   0  0  0  0  0  0  0  0  0  0  0  0
  1  2  2  0
  2  3  1  0
  3  4  1  0
  4  5  2  0
  5  6  1  0
  6  7  2  0
  7  8  1  0
  8  9  1  0
  9 10  2  0
  9 11  1  0
 11 12  1  0
 12 13  2  0
 13 14  1  0
 14 15  1  0
 15 16  2  0
 16 17  1  0
 17 18  2  0
 18 19  1  0
  7 20  1  0
 20 21  1  0
 21 22  1  0
 20 23  2  0
  2 24  1  0
 24 25  1  0
 25 26  2  0
 26 27  1  0
 27 28  1  0
 27 29  2  0
 29 30  1  0
 30 31  2  0
 31 32  1  0
 23  4  1  0
 31 25  1  0
 19 11  2  0
 19 15  1  0
M  END
>  <energy>  (397) 
24.89

>  <full_id>  (397) 
MOL00016101-001161-03_1

>  <mol_id>  (397) 
MOL00016101-001161-03

>  <act_mol>  (397) 
0

>  <act_conf>  (397) 
0

$$$$
MOL00016018-000183-04
     RDKit          3D

 34 37  0  0  0  0  0  0  0  0999 V2000
   -6.6407   -4.4786    2.3440 C   0  0  0  0  0  0  0  0  0  0  0  0
   -6.4430   -4.2358    0.8560 C   0  0  0  0  0  0  0  0  0  0  0  0
   -6.0209   -2.8449    0.5606 C   0  0  0  0  0  0  0  0  0  0  0  0
   -4.5241   -2.4674    0.4359 N   0  0  0  0  0  0  0  0  0  0  0  0
   -4.6496   -1.1360    0.1439 N   0  0  0  0  0  4  0  0  0  0  0  0
   -3.7979   -0.1030   -0.1698 C   0  0  0  0  0  0  0  0  0  0  0  0
   -2.3393   -0.2745   -0.3239 C   0  0  0  0  0  0  0  0  0  0  0  0
   -1.9346   -1.3338   -0.7878 O   0  0  0  0  0  0  0  0  0  0  0  0
   -1.5705    0.7803    0.1299 N   0  0  0  0  0  0  0  0  0  0  0  0
   -0.1619    0.8945    0.0548 C   0  0  0  0  0  0  0  0  0  0  0  0
    0.6704   -0.0362   -0.5733 C   0  0  0  0  0  0  0  0  0  0  0  0
    2.0580    0.1626   -0.6213 C   0  0  0  0  0  0  0  0  0  0  0  0
    2.6278    1.2949   -0.0316 C   0  0  0  0  0  0  0  0  0  0  0  0
    4.0926    1.5661   -0.0784 C   0  0  0  0  0  0  0  0  0  0  0  0
    4.4581    2.7338   -0.1417 O   0  0  0  0  0  0  0  0  0  0  0  0
    4.9080    0.4492   -0.0108 N   0  0  0  0  0  0  0  0  0  0  0  0
    6.2859    0.4062   -0.0709 C   0  0  0  0  0  0  0  0  0  0  0  0
    6.8953   -0.9002    0.0966 C   0  0  0  0  0  0  0  0  0  0  0  0
    8.2247   -1.0588    0.0514 C   0  0  0  0  0  0  0  0  0  0  0  0
    9.1172    0.1077   -0.1748 C   0  0  0  0  0  0  0  0  0  0  0  0
   10.3306   -0.0707   -0.2111 O   0  0  0  0  0  0  0  0  0  0  0  0
    8.4758    1.3321   -0.3306 N   0  0  0  0  0  0  0  0  0  0  0  0
    9.2719    2.5284   -0.5563 C   0  0  0  0  0  0  0  0  0  0  0  0
    7.0937    1.4604   -0.2779 C   0  0  0  0  0  0  0  0  0  0  0  0
    1.7973    2.2354    0.5852 C   0  0  0  0  0  0  0  0  0  0  0  0
    0.4142    2.0341    0.6312 C   0  0  0  0  0  0  0  0  0  0  0  0
   -4.5870    0.9884   -0.4412 C   0  0  0  0  0  0  0  0  0  0  0  0
   -4.1770    2.3055   -1.0133 C   0  0  0  0  0  0  0  0  0  0  0  0
   -5.9695    0.7487   -0.2043 N   0  0  0  0  0  0  0  0  0  0  0  0
   -6.0108   -0.6529    0.0963 N   0  0  0  0  0  0  0  0  0  0  0  0
   -6.8846   -1.6969    0.3314 C   0  0  0  0  0  0  0  0  0  0  0  0
   -8.2774   -1.5547    0.3116 N   0  0  0  0  0  4  0  0  0  0  0  0
   -8.9310   -2.5077    0.7409 O   0  0  0  0  0  0  0  0  0  0  0  0
   -8.7094   -0.4897   -0.1456 O   0  0  0  0  0  1  0  0  0  0  0  0
  1  2  1  0
  2  3  1  0
  3  4  1  0
  4  5  2  0
  5  6  1  0
  6  7  1  0
  7  8  2  0
  7  9  1  0
  9 10  1  0
 10 11  2  0
 11 12  1  0
 12 13  2  0
 13 14  1  0
 14 15  2  0
 14 16  1  0
 16 17  1  0
 17 18  1  0
 18 19  2  0
 19 20  1  0
 20 21  2  0
 20 22  1  0
 22 23  1  0
 22 24  1  0
 13 25  1  0
 25 26  2  0
  6 27  2  0
 27 28  1  0
 27 29  1  0
 29 30  1  0
 30 31  1  0
 31 32  1  0
 32 33  2  0
 32 34  1  0
 31  3  2  0
 30  5  1  0
 26 10  1  0
 24 17  2  0
M  CHG  3   5   1  32   1  34  -1
M  END
>  <energy>  (398) 
188.81

>  <full_id>  (398) 
MOL00016018-000183-04_1

>  <mol_id>  (398) 
MOL00016018-000183-04

>  <act_mol>  (398) 
0

>  <act_conf>  (398) 
0

$$$$
MOL00016008-002258-02
     RDKit          3D

 33 35  0  0  0  0  0  0  0  0999 V2000
   -5.9560   -4.5547   -2.6834 C   0  0  0  0  0  0  0  0  0  0  0  0
   -5.8248   -3.1561   -2.1032 C   0  0  0  0  0  0  0  0  0  0  0  0
   -5.0879   -3.1739   -0.7617 C   0  0  0  0  0  0  0  0  0  0  0  0
   -4.9519   -1.8236   -0.1948 N   0  0  0  0  0  0  0  0  0  0  0  0
   -3.8163   -1.0580   -0.4538 C   0  0  0  0  0  0  0  0  0  0  0  0
   -2.8144   -1.5724   -1.2722 N   0  0  0  0  0  0  0  0  0  0  0  0
   -3.7155    0.1695    0.1025 C   0  0  0  0  0  0  0  0  0  0  0  0
   -2.4954    1.0041   -0.1209 C   0  0  0  0  0  0  0  0  0  0  0  0
   -1.9101    0.9850   -1.2113 O   0  0  0  0  0  0  0  0  0  0  0  0
   -1.9843    1.8593    1.0369 C   0  0  0  0  0  0  0  0  0  0  0  0
   -0.5296    1.8298    1.0262 N   0  0  0  0  0  0  0  0  0  0  0  0
    0.1366    0.8252    1.6988 C   0  0  0  0  0  0  0  0  0  0  0  0
   -0.4364    0.0142    2.4180 O   0  0  0  0  0  0  0  0  0  0  0  0
    1.6059    0.7257    1.4692 C   0  0  0  0  0  0  0  0  0  0  0  0
    2.3712    1.8235    1.0494 C   0  0  0  0  0  0  0  0  0  0  0  0
    3.7466    1.6816    0.8428 C   0  0  0  0  0  0  0  0  0  0  0  0
    4.3545    0.4410    1.0589 C   0  0  0  0  0  0  0  0  0  0  0  0
    6.1037    0.2669    0.8190 S   0  0  0  0  0  6  0  0  0  0  0  0
    6.5751   -0.8086    1.6622 O   0  0  0  0  0  0  0  0  0  0  0  0
    6.7057    1.5808    0.8414 O   0  0  0  0  0  0  0  0  0  0  0  0
    6.1579   -0.3210   -0.7639 N   0  0  0  0  0  0  0  0  0  0  0  0
    6.5851    0.4962   -1.9326 C   0  0  0  0  0  0  0  0  0  0  0  0
    6.5940   -0.2123   -3.3096 C   0  0  0  0  0  0  0  0  0  0  0  0
    7.8514    0.6131   -3.6462 C   0  0  0  0  0  0  0  0  0  0  0  0
    8.1061    0.7080   -2.1291 C   0  0  0  0  0  0  0  0  0  0  0  0
    3.6071   -0.6515    1.5059 C   0  0  0  0  0  0  0  0  0  0  0  0
    2.2329   -0.5062    1.7089 C   0  0  0  0  0  0  0  0  0  0  0  0
   -4.8177    0.7008    0.9261 C   0  0  0  0  0  0  0  0  0  0  0  0
   -4.7926    1.8781    1.2843 O   0  0  0  0  0  0  0  0  0  0  0  0
   -5.8475   -0.1597    1.2189 N   0  0  0  0  0  0  0  0  0  0  0  0
   -6.9331    0.3212    2.0536 C   0  0  0  0  0  0  0  0  0  0  0  0
   -6.0058   -1.3932    0.6134 C   0  0  0  0  0  0  0  0  0  0  0  0
   -7.0288   -2.0627    0.7725 O   0  0  0  0  0  0  0  0  0  0  0  0
  1  2  1  0
  2  3  1  0
  3  4  1  0
  4  5  1  0
  5  6  1  0
  5  7  2  0
  7  8  1  0
  8  9  2  0
  8 10  1  0
 10 11  1  0
 11 12  1  0
 12 13  2  0
 12 14  1  0
 14 15  2  0
 15 16  1  0
 16 17  2  0
 17 18  1  0
 18 19  2  0
 18 20  2  0
 18 21  1  0
 22 21  1  0
 22 23  1  0
 23 24  1  0
 24 25  1  0
 17 26  1  0
 26 27  2  0
  7 28  1  0
 28 29  2  0
 28 30  1  0
 30 31  1  0
 30 32  1  0
 32 33  2  0
 32  4  1  0
 27 14  1  0
 25 22  1  0
M  END
>  <energy>  (399) 
-109.79

>  <full_id>  (399) 
MOL00016008-002258-02_1

>  <mol_id>  (399) 
MOL00016008-002258-02

>  <act_mol>  (399) 
0

>  <act_conf>  (399) 
0

$$$$
