
  Mrv2316 09262419122D          

 22 24  0  0  0  0            999 V2000
    4.8946    1.0527    0.0000 C   0  0  0  0  0  0  0  0  0  0  0  0
    4.1801    0.6402    0.0000 N   0  0  0  0  0  0  0  0  0  0  0  0
    4.1801   -0.1848    0.0000 C   0  0  0  0  0  0  0  0  0  0  0  0
    4.8476   -0.6697    0.0000 N   0  0  0  0  0  0  0  0  0  0  0  0
    4.5926   -1.4544    0.0000 C   0  0  0  0  0  0  0  0  0  0  0  0
    5.0775   -2.1218    0.0000 C   0  0  0  0  0  0  0  0  0  0  0  0
    3.7676   -1.4544    0.0000 C   0  0  0  0  0  0  0  0  0  0  0  0
    3.5127   -0.6697    0.0000 S   0  0  0  0  0  0  0  0  0  0  0  0
    3.2827   -2.1218    0.0000 C   0  0  0  0  0  0  0  0  0  0  0  0
    3.6183   -2.8755    0.0000 C   0  0  0  0  0  0  0  0  0  0  0  0
    3.1333   -3.5429    0.0000 C   0  0  0  0  0  0  0  0  0  0  0  0
    2.3129   -3.4567    0.0000 N   0  0  0  0  0  0  0  0  0  0  0  0
    1.9773   -2.7030    0.0000 C   0  0  0  0  0  0  0  0  0  0  0  0
    1.1568   -2.6168    0.0000 N   0  0  0  0  0  0  0  0  0  0  0  0
    0.8213   -1.8631    0.0000 C   0  0  0  0  0  0  0  0  0  0  0  0
    0.0008   -1.7769    0.0000 C   0  0  0  0  0  0  0  0  0  0  0  0
   -0.3348   -1.0232    0.0000 C   0  0  0  0  0  0  0  0  0  0  0  0
    0.1501   -0.3557    0.0000 C   0  0  0  0  0  0  0  0  0  0  0  0
   -0.1854    0.3979    0.0000 O   0  0  0  0  0  0  0  0  0  0  0  0
    0.9706   -0.4420    0.0000 C   0  0  0  0  0  0  0  0  0  0  0  0
    1.3062   -1.1957    0.0000 C   0  0  0  0  0  0  0  0  0  0  0  0
    2.4622   -2.0356    0.0000 N   0  0  0  0  0  0  0  0  0  0  0  0
  1  2  1  0  0  0  0
  2  3  1  0  0  0  0
  3  4  4  0  0  0  0
  4  5  4  0  0  0  0
  5  6  1  0  0  0  0
  5  7  4  0  0  0  0
  7  8  4  0  0  0  0
  3  8  4  0  0  0  0
  7  9  1  0  0  0  0
  9 10  4  0  0  0  0
 10 11  4  0  0  0  0
 11 12  4  0  0  0  0
 12 13  4  0  0  0  0
 13 14  1  0  0  0  0
 14 15  1  0  0  0  0
 15 16  4  0  0  0  0
 16 17  4  0  0  0  0
 17 18  4  0  0  0  0
 18 19  1  0  0  0  0
 18 20  4  0  0  0  0
 20 21  4  0  0  0  0
 15 21  4  0  0  0  0
 13 22  4  0  0  0  0
  9 22  4  0  0  0  0
M  END
> <BindingDB_ID/CHEMBL_ID>
8054

> <pKi>
7.2

> <Target Name>
Cyclin-A2/Cyclin-dependent kinase 2

> <Target Source Organism>
Homo sapiens

> <Target Uniprot>
P24941

> <Article DOI>
10.1016/j.ejmech.2021.113244

$$$$

  Mrv2316 09262419122D          

 24 26  0  0  0  0            999 V2000
    4.1381   -1.2636    0.0000 C   0  0  0  0  0  0  0  0  0  0  0  0
    4.8525   -0.8511    0.0000 N   0  0  0  0  0  0  0  0  0  0  0  0
    4.8525   -0.0261    0.0000 C   0  0  0  0  0  0  0  0  0  0  0  0
    5.5670   -1.2636    0.0000 C   0  0  0  0  0  0  0  0  0  0  0  0
    6.2815   -0.8511    0.0000 C   0  0  0  0  0  0  0  0  0  0  0  0
    6.9960   -1.2636    0.0000 C   0  0  0  0  0  0  0  0  0  0  0  0
    7.7104   -0.8511    0.0000 C   0  0  0  0  0  0  0  0  0  0  0  0
    7.7104   -0.0261    0.0000 O   0  0  0  0  0  0  0  0  0  0  0  0
    8.4249   -1.2636    0.0000 N   0  0  0  0  0  0  0  0  0  0  0  0
    9.1394   -0.8511    0.0000 C   0  0  0  0  0  0  0  0  0  0  0  0
    9.2256   -0.0307    0.0000 N   0  0  0  0  0  0  0  0  0  0  0  0
   10.0326    0.1409    0.0000 N   0  0  0  0  0  0  0  0  0  0  0  0
   10.4451   -0.5736    0.0000 C   0  0  0  0  0  0  0  0  0  0  0  0
   11.2521   -0.7451    0.0000 N   0  0  0  0  0  0  0  0  0  0  0  0
   11.5070   -1.5298    0.0000 N   0  0  0  0  0  0  0  0  0  0  0  0
   10.9550   -2.1428    0.0000 C   0  0  0  0  0  0  0  0  0  0  0  0
   10.1480   -1.9713    0.0000 C   0  0  0  0  0  0  0  0  0  0  0  0
    9.8930   -1.1867    0.0000 C   0  0  0  0  0  0  0  0  0  0  0  0
   11.2099   -2.9275    0.0000 C   0  0  0  0  0  0  0  0  0  0  0  0
   12.0169   -3.0990    0.0000 C   0  0  0  0  0  0  0  0  0  0  0  0
   12.2718   -3.8836    0.0000 C   0  0  0  0  0  0  0  0  0  0  0  0
   11.7198   -4.4967    0.0000 C   0  0  0  0  0  0  0  0  0  0  0  0
   10.9128   -4.3252    0.0000 C   0  0  0  0  0  0  0  0  0  0  0  0
   10.6579   -3.5406    0.0000 C   0  0  0  0  0  0  0  0  0  0  0  0
  1  2  1  0  0  0  0
  2  3  1  0  0  0  0
  2  4  1  0  0  0  0
  4  5  1  0  0  0  0
  5  6  1  0  0  0  0
  6  7  1  0  0  0  0
  7  8  2  0  0  0  0
  7  9  1  0  0  0  0
  9 10  1  0  0  0  0
 10 11  4  0  0  0  0
 11 12  4  0  0  0  0
 12 13  4  0  0  0  0
 13 14  4  0  0  0  0
 14 15  4  0  0  0  0
 15 16  4  0  0  0  0
 16 17  4  0  0  0  0
 17 18  4  0  0  0  0
 10 18  4  0  0  0  0
 13 18  4  0  0  0  0
 16 19  1  0  0  0  0
 19 20  4  0  0  0  0
 20 21  4  0  0  0  0
 21 22  4  0  0  0  0
 22 23  4  0  0  0  0
 23 24  4  0  0  0  0
 19 24  4  0  0  0  0
M  STY  1   1 DAT
M  SAL   1  1  12
M  SDT   1 MRV_IMPLICIT_H                                        
M  SDD   1     0.5304   -0.4125    DR    ALL  0       0  
M  SED   1 IMPL_H1
M  END
> <BindingDB_ID/CHEMBL_ID>
8327

> <pKi>
5.8

> <Target Name>
Cyclin-A2/Cyclin-dependent kinase 2

> <Target Source Organism>
Homo sapiens

> <Target Uniprot>
P24941

> <Article DOI>
10.1016/s0960-894x(03)00135-5

$$$$

  Mrv2316 09262419122D          

 21 24  0  0  0  0            999 V2000
    2.2428   -2.5916    0.0000 O   0  0  0  0  0  0  0  0  0  0  0  0
    1.4358   -2.7631    0.0000 C   0  0  0  0  0  0  0  0  0  0  0  0
    0.8838   -2.1500    0.0000 N   0  0  0  0  0  0  0  0  0  0  0  0
    1.1387   -1.3654    0.0000 C   0  0  0  0  0  0  0  0  0  0  0  0
    0.6538   -0.6979    0.0000 N   0  0  0  0  0  0  0  0  0  0  0  0
    1.1387   -0.0305    0.0000 N   0  0  0  0  0  0  0  0  0  0  0  0
    1.9233   -0.2854    0.0000 C   0  0  0  0  0  0  0  0  0  0  0  0
    2.6378    0.1271    0.0000 N   0  0  0  0  0  0  0  0  0  0  0  0
    3.3523   -0.2854    0.0000 N   0  0  0  0  0  0  0  0  0  0  0  0
    3.3523   -1.1104    0.0000 C   0  0  0  0  0  0  0  0  0  0  0  0
    2.6378   -1.5229    0.0000 C   0  0  0  0  0  0  0  0  0  0  0  0
    1.9233   -1.1104    0.0000 C   0  0  0  0  0  0  0  0  0  0  0  0
    4.0668   -1.5229    0.0000 C   0  0  0  0  0  0  0  0  0  0  0  0
    4.7812   -1.1104    0.0000 C   0  0  0  0  0  0  0  0  0  0  0  0
    5.4957   -1.5229    0.0000 C   0  0  0  0  0  0  0  0  0  0  0  0
    5.4957   -2.3479    0.0000 C   0  0  0  0  0  0  0  0  0  0  0  0
    4.7812   -2.7604    0.0000 N   0  0  0  0  0  0  0  0  0  0  0  0
    4.0668   -2.3479    0.0000 C   0  0  0  0  0  0  0  0  0  0  0  0
    1.1809   -3.5477    0.0000 C   0  0  0  0  0  0  0  0  0  0  0  0
    1.3524   -4.3547    0.0000 C   0  0  0  0  0  0  0  0  0  0  0  0
    0.5678   -4.0998    0.0000 C   0  0  0  0  0  0  0  0  0  0  0  0
  1  2  2  0  0  0  0
  2  3  1  0  0  0  0
  3  4  1  0  0  0  0
  4  5  4  0  0  0  0
  5  6  4  0  0  0  0
  6  7  4  0  0  0  0
  7  8  4  0  0  0  0
  8  9  4  0  0  0  0
  9 10  4  0  0  0  0
 10 11  4  0  0  0  0
 11 12  4  0  0  0  0
  4 12  4  0  0  0  0
  7 12  4  0  0  0  0
 10 13  1  0  0  0  0
 13 14  4  0  0  0  0
 14 15  4  0  0  0  0
 15 16  4  0  0  0  0
 16 17  4  0  0  0  0
 17 18  4  0  0  0  0
 13 18  4  0  0  0  0
  2 19  1  0  0  0  0
 19 20  1  0  0  0  0
 20 21  1  0  0  0  0
 19 21  1  0  0  0  0
M  STY  1   1 DAT
M  SAL   1  1   6
M  SDT   1 MRV_IMPLICIT_H                                        
M  SDD   1     0.5304   -0.4125    DR    ALL  0       0  
M  SED   1 IMPL_H1
M  END
> <BindingDB_ID/CHEMBL_ID>
8336

> <pKi>
8.3

> <Target Name>
Cyclin-A2/Cyclin-dependent kinase 2

> <Target Source Organism>
Homo sapiens

> <Target Uniprot>
P24941

> <Article DOI>
10.1016/s0960-894x(03)00135-5

$$$$

  Mrv2316 09262419122D          

 25 28  0  0  0  0            999 V2000
    4.9279    1.1104    0.0000 F   0  0  0  0  0  0  0  0  0  0  0  0
    4.2135    0.6979    0.0000 C   0  0  0  0  0  0  0  0  0  0  0  0
    4.2135   -0.1271    0.0000 C   0  0  0  0  0  0  0  0  0  0  0  0
    3.4990   -0.5396    0.0000 C   0  0  0  0  0  0  0  0  0  0  0  0
    2.7845   -0.1271    0.0000 C   0  0  0  0  0  0  0  0  0  0  0  0
    2.7845    0.6979    0.0000 C   0  0  0  0  0  0  0  0  0  0  0  0
    3.4990    1.1104    0.0000 C   0  0  0  0  0  0  0  0  0  0  0  0
    3.4990    1.9354    0.0000 F   0  0  0  0  0  0  0  0  0  0  0  0
    2.0701    1.1104    0.0000 C   0  0  0  0  0  0  0  0  0  0  0  0
    1.3556    0.6979    0.0000 C   0  0  0  0  0  0  0  0  0  0  0  0
    0.6411    1.1104    0.0000 C   0  0  0  0  0  0  0  0  0  0  0  0
   -0.1435    0.8555    0.0000 C   0  0  0  0  0  0  0  0  0  0  0  0
   -0.3984    0.0709    0.0000 N   0  0  0  0  0  0  0  0  0  0  0  0
    0.1536   -0.5422    0.0000 C   0  0  0  0  0  0  0  0  0  0  0  0
    0.9606   -0.3707    0.0000 O   0  0  0  0  0  0  0  0  0  0  0  0
   -0.1014   -1.3268    0.0000 C   0  0  0  0  0  0  0  0  0  0  0  0
    0.3836   -1.9943    0.0000 C   0  0  0  0  0  0  0  0  0  0  0  0
   -0.1014   -2.6617    0.0000 C   0  0  0  0  0  0  0  0  0  0  0  0
   -0.8860   -2.4068    0.0000 C   0  0  0  0  0  0  0  0  0  0  0  0
   -0.8860   -1.5818    0.0000 C   0  0  0  0  0  0  0  0  0  0  0  0
   -0.6284    1.5229    0.0000 N   0  0  0  0  0  0  0  0  0  0  0  0
   -0.1435    2.1904    0.0000 N   0  0  0  0  0  0  0  0  0  0  0  0
    0.6411    1.9354    0.0000 C   0  0  0  0  0  0  0  0  0  0  0  0
    1.3556    2.3479    0.0000 N   0  0  0  0  0  0  0  0  0  0  0  0
    2.0701    1.9354    0.0000 N   0  0  0  0  0  0  0  0  0  0  0  0
  1  2  1  0  0  0  0
  2  3  4  0  0  0  0
  3  4  4  0  0  0  0
  4  5  4  0  0  0  0
  5  6  4  0  0  0  0
  6  7  4  0  0  0  0
  2  7  4  0  0  0  0
  7  8  1  0  0  0  0
  6  9  1  0  0  0  0
  9 10  4  0  0  0  0
 10 11  4  0  0  0  0
 11 12  4  0  0  0  0
 12 13  1  0  0  0  0
 13 14  1  0  0  0  0
 14 15  2  0  0  0  0
 14 16  1  0  0  0  0
 16 17  1  0  0  0  0
 17 18  1  0  0  0  0
 18 19  1  0  0  0  0
 19 20  1  0  0  0  0
 16 20  1  0  0  0  0
 12 21  4  0  0  0  0
 21 22  4  0  0  0  0
 22 23  4  0  0  0  0
 11 23  4  0  0  0  0
 23 24  4  0  0  0  0
 24 25  4  0  0  0  0
  9 25  4  0  0  0  0
M  STY  1   1 DAT
M  SAL   1  1  22
M  SDT   1 MRV_IMPLICIT_H                                        
M  SDD   1     0.5304   -0.4125    DR    ALL  0       0  
M  SED   1 IMPL_H1
M  END
> <BindingDB_ID/CHEMBL_ID>
8337

> <pKi>
8.3

> <Target Name>
Cyclin-A2/Cyclin-dependent kinase 2

> <Target Source Organism>
Homo sapiens

> <Target Uniprot>
P24941

> <Article DOI>
10.1016/s0960-894x(03)00135-5

$$$$

  Mrv2316 09262419122D          

 28 31  0  0  0  0            999 V2000
   -0.3909   -6.0731    0.0000 C   0  0  0  0  0  0  0  0  0  0  0  0
   -0.9429   -5.4600    0.0000 C   0  0  0  0  0  0  0  0  0  0  0  0
   -0.6880   -4.6754    0.0000 N   0  0  0  0  0  0  0  0  0  0  0  0
   -1.2400   -4.0623    0.0000 C   0  0  0  0  0  0  0  0  0  0  0  0
   -0.9851   -3.2777    0.0000 C   0  0  0  0  0  0  0  0  0  0  0  0
   -0.1781   -3.1062    0.0000 C   0  0  0  0  0  0  0  0  0  0  0  0
    0.3739   -3.7192    0.0000 C   0  0  0  0  0  0  0  0  0  0  0  0
    0.1190   -4.5039    0.0000 C   0  0  0  0  0  0  0  0  0  0  0  0
    0.0768   -2.3215    0.0000 C   0  0  0  0  0  0  0  0  0  0  0  0
   -0.4752   -1.7084    0.0000 O   0  0  0  0  0  0  0  0  0  0  0  0
    0.8838   -2.1500    0.0000 N   0  0  0  0  0  0  0  0  0  0  0  0
    1.1387   -1.3654    0.0000 C   0  0  0  0  0  0  0  0  0  0  0  0
    0.6538   -0.6979    0.0000 N   0  0  0  0  0  0  0  0  0  0  0  0
    1.1387   -0.0305    0.0000 N   0  0  0  0  0  0  0  0  0  0  0  0
    1.9233   -0.2854    0.0000 C   0  0  0  0  0  0  0  0  0  0  0  0
    2.6378    0.1271    0.0000 N   0  0  0  0  0  0  0  0  0  0  0  0
    3.3523   -0.2854    0.0000 N   0  0  0  0  0  0  0  0  0  0  0  0
    3.3523   -1.1104    0.0000 C   0  0  0  0  0  0  0  0  0  0  0  0
    2.6378   -1.5229    0.0000 C   0  0  0  0  0  0  0  0  0  0  0  0
    1.9233   -1.1104    0.0000 C   0  0  0  0  0  0  0  0  0  0  0  0
    4.0668   -1.5229    0.0000 C   0  0  0  0  0  0  0  0  0  0  0  0
    4.7812   -1.1104    0.0000 C   0  0  0  0  0  0  0  0  0  0  0  0
    5.4957   -1.5229    0.0000 C   0  0  0  0  0  0  0  0  0  0  0  0
    5.4957   -2.3479    0.0000 C   0  0  0  0  0  0  0  0  0  0  0  0
    4.7812   -2.7604    0.0000 C   0  0  0  0  0  0  0  0  0  0  0  0
    4.7812   -3.5854    0.0000 F   0  0  0  0  0  0  0  0  0  0  0  0
    4.0668   -2.3479    0.0000 C   0  0  0  0  0  0  0  0  0  0  0  0
    3.3523   -2.7604    0.0000 F   0  0  0  0  0  0  0  0  0  0  0  0
  1  2  1  0  0  0  0
  2  3  1  0  0  0  0
  3  4  1  0  0  0  0
  4  5  1  0  0  0  0
  5  6  1  0  0  0  0
  6  7  1  0  0  0  0
  7  8  1  0  0  0  0
  3  8  1  0  0  0  0
  6  9  1  0  0  0  0
  9 10  2  0  0  0  0
  9 11  1  0  0  0  0
 11 12  1  0  0  0  0
 12 13  4  0  0  0  0
 13 14  4  0  0  0  0
 14 15  4  0  0  0  0
 15 16  4  0  0  0  0
 16 17  4  0  0  0  0
 17 18  4  0  0  0  0
 18 19  4  0  0  0  0
 19 20  4  0  0  0  0
 12 20  4  0  0  0  0
 15 20  4  0  0  0  0
 18 21  1  0  0  0  0
 21 22  4  0  0  0  0
 22 23  4  0  0  0  0
 23 24  4  0  0  0  0
 24 25  4  0  0  0  0
 25 26  1  0  0  0  0
 25 27  4  0  0  0  0
 21 27  4  0  0  0  0
 27 28  1  0  0  0  0
M  STY  1   1 DAT
M  SAL   1  1  14
M  SDT   1 MRV_IMPLICIT_H                                        
M  SDD   1     0.5304   -0.4125    DR    ALL  0       0  
M  SED   1 IMPL_H1
M  END
> <BindingDB_ID/CHEMBL_ID>
8338

> <pKi>
6.3

> <Target Name>
Cyclin-A2/Cyclin-dependent kinase 2

> <Target Source Organism>
Homo sapiens

> <Target Uniprot>
P24941

> <Article DOI>
10.1016/s0960-894x(03)00135-5

$$$$

  Mrv2316 09262419122D          

 29 32  0  0  0  0            999 V2000
   -3.6610   -4.5769    0.0000 C   0  0  0  0  0  0  0  0  0  0  0  0
   -3.4060   -3.7923    0.0000 C   0  0  0  0  0  0  0  0  0  0  0  0
   -2.5990   -3.6207    0.0000 N   0  0  0  0  0  0  0  0  0  0  0  0
   -2.3441   -2.8361    0.0000 C   0  0  0  0  0  0  0  0  0  0  0  0
   -1.5371   -2.6646    0.0000 C   0  0  0  0  0  0  0  0  0  0  0  0
   -0.9851   -3.2777    0.0000 C   0  0  0  0  0  0  0  0  0  0  0  0
   -0.1781   -3.1062    0.0000 C   0  0  0  0  0  0  0  0  0  0  0  0
    0.0768   -2.3215    0.0000 C   0  0  0  0  0  0  0  0  0  0  0  0
   -0.4752   -1.7084    0.0000 O   0  0  0  0  0  0  0  0  0  0  0  0
    0.8838   -2.1500    0.0000 N   0  0  0  0  0  0  0  0  0  0  0  0
    1.1387   -1.3654    0.0000 C   0  0  0  0  0  0  0  0  0  0  0  0
    0.6538   -0.6979    0.0000 N   0  0  0  0  0  0  0  0  0  0  0  0
    1.1387   -0.0305    0.0000 N   0  0  0  0  0  0  0  0  0  0  0  0
    1.9233   -0.2854    0.0000 C   0  0  0  0  0  0  0  0  0  0  0  0
    2.6378    0.1271    0.0000 N   0  0  0  0  0  0  0  0  0  0  0  0
    3.3523   -0.2854    0.0000 N   0  0  0  0  0  0  0  0  0  0  0  0
    3.3523   -1.1104    0.0000 C   0  0  0  0  0  0  0  0  0  0  0  0
    2.6378   -1.5229    0.0000 C   0  0  0  0  0  0  0  0  0  0  0  0
    1.9233   -1.1104    0.0000 C   0  0  0  0  0  0  0  0  0  0  0  0
    4.0668   -1.5229    0.0000 C   0  0  0  0  0  0  0  0  0  0  0  0
    4.7812   -1.1104    0.0000 C   0  0  0  0  0  0  0  0  0  0  0  0
    5.4957   -1.5229    0.0000 C   0  0  0  0  0  0  0  0  0  0  0  0
    5.4957   -2.3479    0.0000 C   0  0  0  0  0  0  0  0  0  0  0  0
    4.7812   -2.7604    0.0000 C   0  0  0  0  0  0  0  0  0  0  0  0
    4.7812   -3.5854    0.0000 F   0  0  0  0  0  0  0  0  0  0  0  0
    4.0668   -2.3479    0.0000 C   0  0  0  0  0  0  0  0  0  0  0  0
    3.3523   -2.7604    0.0000 F   0  0  0  0  0  0  0  0  0  0  0  0
   -1.2400   -4.0623    0.0000 C   0  0  0  0  0  0  0  0  0  0  0  0
   -2.0470   -4.2338    0.0000 C   0  0  0  0  0  0  0  0  0  0  0  0
  1  2  1  0  0  0  0
  2  3  1  0  0  0  0
  3  4  1  0  0  0  0
  4  5  1  0  0  0  0
  5  6  1  0  0  0  0
  6  7  1  0  0  0  0
  7  8  1  0  0  0  0
  8  9  2  0  0  0  0
  8 10  1  0  0  0  0
 10 11  1  0  0  0  0
 11 12  4  0  0  0  0
 12 13  4  0  0  0  0
 13 14  4  0  0  0  0
 14 15  4  0  0  0  0
 15 16  4  0  0  0  0
 16 17  4  0  0  0  0
 17 18  4  0  0  0  0
 18 19  4  0  0  0  0
 11 19  4  0  0  0  0
 14 19  4  0  0  0  0
 17 20  1  0  0  0  0
 20 21  4  0  0  0  0
 21 22  4  0  0  0  0
 22 23  4  0  0  0  0
 23 24  4  0  0  0  0
 24 25  1  0  0  0  0
 24 26  4  0  0  0  0
 20 26  4  0  0  0  0
 26 27  1  0  0  0  0
  6 28  1  0  0  0  0
 28 29  1  0  0  0  0
  3 29  1  0  0  0  0
M  STY  1   1 DAT
M  SAL   1  1  13
M  SDT   1 MRV_IMPLICIT_H                                        
M  SDD   1     0.5304   -0.4125    DR    ALL  0       0  
M  SED   1 IMPL_H1
M  END
> <BindingDB_ID/CHEMBL_ID>
8339

> <pKi>
6.3

> <Target Name>
Cyclin-A2/Cyclin-dependent kinase 2

> <Target Source Organism>
Homo sapiens

> <Target Uniprot>
P24941

> <Article DOI>
10.1016/s0960-894x(03)00135-5

$$$$

  Mrv2316 09262419122D          

 36 43  0  0  1  0            999 V2000
    3.2998   -1.6147    0.0000 C   0  0  0  0  0  0  0  0  0  0  0  0
    2.6175   -1.1509    0.0000 N   0  0  0  0  0  0  0  0  0  0  0  0
    2.6781   -0.3281    0.0000 C   0  0  2  0  0  0  0  0  0  0  0  0
    3.4346    0.0843    0.0000 C   0  0  0  0  0  0  0  0  0  0  0  0
    3.5340    1.0056    0.0000 C   0  0  1  0  0  0  0  0  0  0  0  0
    2.7829    1.0943    0.0000 O   0  0  0  0  0  0  0  0  0  0  0  0
    2.0392    1.0803    0.0000 C   0  0  1  0  0  0  0  0  0  0  0  0
    1.2158    1.0290    0.0000 C   0  0  0  0  0  0  0  0  0  0  0  0
    1.9976    0.1848    0.0000 C   0  0  2  0  0  0  0  0  0  0  0  0
    1.2509   -0.1660    0.0000 O   0  0  0  0  0  0  0  0  0  0  0  0
    1.1814   -0.9881    0.0000 C   0  0  0  0  0  0  0  0  0  0  0  0
    1.8845    1.9774    0.0000 N   0  0  0  0  0  0  0  0  0  0  0  0
    1.0837    2.2891    0.0000 C   0  0  0  0  0  0  0  0  0  0  0  0
    0.3426    1.9267    0.0000 C   0  0  0  0  0  0  0  0  0  0  0  0
   -0.3418    2.3873    0.0000 C   0  0  0  0  0  0  0  0  0  0  0  0
   -0.2851    3.2104    0.0000 C   0  0  0  0  0  0  0  0  0  0  0  0
    0.4560    3.5728    0.0000 C   0  0  0  0  0  0  0  0  0  0  0  0
    1.1405    3.1121    0.0000 C   0  0  0  0  0  0  0  0  0  0  0  0
    1.9683    3.3508    0.0000 C   0  0  0  0  0  0  0  0  0  0  0  0
    2.4184    4.0586    0.0000 C   0  0  0  0  0  0  0  0  0  0  0  0
    2.1611    4.8425    0.0000 C   0  0  1  0  0  0  0  0  0  0  0  0
    1.3757    5.0950    0.0000 O   0  0  0  0  0  0  0  0  0  0  0  0
    2.8270    5.3294    0.0000 N   0  0  0  0  0  0  0  0  0  0  0  0
    3.4960    4.8466    0.0000 C   0  0  0  0  0  0  0  0  0  0  0  0
    4.2798    5.1039    0.0000 O   0  0  0  0  0  0  0  0  0  0  0  0
    3.2434    4.0611    0.0000 C   0  0  0  0  0  0  0  0  0  0  0  0
    3.7056    3.3238    0.0000 C   0  0  0  0  0  0  0  0  0  0  0  0
    4.5328    3.0983    0.0000 C   0  0  0  0  0  0  0  0  0  0  0  0
    5.2085    3.5716    0.0000 C   0  0  0  0  0  0  0  0  0  0  0  0
    5.9563    3.2230    0.0000 C   0  0  0  0  0  0  0  0  0  0  0  0
    6.0283    2.4012    0.0000 C   0  0  0  0  0  0  0  0  0  0  0  0
    5.3526    1.9279    0.0000 C   0  0  0  0  0  0  0  0  0  0  0  0
    4.6048    2.2764    0.0000 C   0  0  0  0  0  0  0  0  0  0  0  0
    3.7857    1.9085    0.0000 N   0  0  0  0  0  0  0  0  0  0  0  0
    3.2639    2.6119    0.0000 C   0  0  0  0  0  0  0  0  0  0  0  0
    2.4191    2.6519    0.0000 C   0  0  0  0  0  0  0  0  0  0  0  0
  1  2  1  0  0  0  0
  3  2  1  1  0  0  0
  3  4  1  0  0  0  0
  5  4  1  0  0  0  0
  5  6  1  1  0  0  0
  7  6  1  0  0  0  0
  7  8  1  6  0  0  0
  9  7  1  0  0  0  0
  9  3  1  0  0  0  0
  9 10  1  1  0  0  0
 10 11  1  0  0  0  0
  7 12  1  0  0  0  0
 12 13  4  0  0  0  0
 13 14  4  0  0  0  0
 14 15  4  0  0  0  0
 15 16  4  0  0  0  0
 16 17  4  0  0  0  0
 17 18  4  0  0  0  0
 13 18  4  0  0  0  0
 18 19  4  0  0  0  0
 19 20  4  0  0  0  0
 21 20  1  0  0  0  0
 21 22  1  1  0  0  0
 21 23  1  0  0  0  0
 23 24  1  0  0  0  0
 24 25  2  0  0  0  0
 24 26  1  0  0  0  0
 20 26  4  0  0  0  0
 26 27  4  0  0  0  0
 27 28  4  0  0  0  0
 28 29  4  0  0  0  0
 29 30  4  0  0  0  0
 30 31  4  0  0  0  0
 31 32  4  0  0  0  0
 32 33  4  0  0  0  0
 28 33  4  0  0  0  0
 33 34  4  0  0  0  0
  5 34  1  0  0  0  0
 34 35  4  0  0  0  0
 27 35  4  0  0  0  0
 35 36  4  0  0  0  0
 12 36  4  0  0  0  0
 19 36  4  0  0  0  0
M  END
> <BindingDB_ID/CHEMBL_ID>
17054

> <pKi>
7.5

> <Target Name>
Cyclin-A2/Cyclin-dependent kinase 2

> <Target Source Organism>
Homo sapiens

> <Target Uniprot>
P24941

> <Article DOI>
10.1074/jbc.M201233200

$$$$

  Mrv2316 09262419122D          

 30 37  0  0  1  0            999 V2000
    1.6575   -4.5193    0.0000 O   0  0  0  0  0  0  0  0  0  0  0  0
    2.4432   -4.2677    0.0000 C   0  0  0  0  0  0  0  0  0  0  0  0
    3.1086   -4.7555    0.0000 N   0  0  0  0  0  0  0  0  0  0  0  0
    3.7781   -4.2734    0.0000 C   0  0  0  0  0  0  0  0  0  0  0  0
    4.5616   -4.5318    0.0000 O   0  0  0  0  0  0  0  0  0  0  0  0
    3.5265   -3.4877    0.0000 C   0  0  0  0  0  0  0  0  0  0  0  0
    2.7015   -3.4842    0.0000 C   0  0  0  0  0  0  0  0  0  0  0  0
    2.2663   -2.7626    0.0000 C   0  0  0  0  0  0  0  0  0  0  0  0
    1.4555   -2.5409    0.0000 C   0  0  0  0  0  0  0  0  0  0  0  0
    0.7748   -3.0071    0.0000 C   0  0  0  0  0  0  0  0  0  0  0  0
    0.0308   -2.6508    0.0000 C   0  0  0  0  0  0  0  0  0  0  0  0
   -0.0326   -1.8282    0.0000 C   0  0  0  0  0  0  0  0  0  0  0  0
    0.6480   -1.3620    0.0000 C   0  0  0  0  0  0  0  0  0  0  0  0
    1.3921   -1.7184    0.0000 C   0  0  0  0  0  0  0  0  0  0  0  0
    2.1724   -1.3674    0.0000 N   0  0  0  0  0  0  0  0  0  0  0  0
    2.3948   -0.5062    0.0000 C   0  0  1  0  0  0  0  0  0  0  0  0
    2.6895    0.3222    0.0000 C   0  0  0  0  0  0  0  0  0  0  0  0
    3.5588    0.3169    0.0000 C   0  0  0  0  0  0  0  0  0  0  0  0
    3.8499   -0.5069    0.0000 C   0  0  1  0  0  0  0  0  0  0  0  0
    3.1241   -0.5881    0.0000 O   0  0  0  0  0  0  0  0  0  0  0  0
    4.0714   -1.3681    0.0000 N   0  0  0  0  0  0  0  0  0  0  0  0
    4.8416   -1.7191    0.0000 C   0  0  0  0  0  0  0  0  0  0  0  0
    5.5853   -1.3619    0.0000 C   0  0  0  0  0  0  0  0  0  0  0  0
    6.2664   -1.8274    0.0000 C   0  0  0  0  0  0  0  0  0  0  0  0
    6.2039   -2.6500    0.0000 C   0  0  0  0  0  0  0  0  0  0  0  0
    5.4602   -3.0072    0.0000 C   0  0  0  0  0  0  0  0  0  0  0  0
    4.7791   -2.5417    0.0000 C   0  0  0  0  0  0  0  0  0  0  0  0
    3.9697   -2.7719    0.0000 C   0  0  0  0  0  0  0  0  0  0  0  0
    3.5480   -2.0505    0.0000 C   0  0  0  0  0  0  0  0  0  0  0  0
    2.6977   -2.0489    0.0000 C   0  0  0  0  0  0  0  0  0  0  0  0
  1  2  2  0  0  0  0
  2  3  1  0  0  0  0
  3  4  1  0  0  0  0
  4  5  2  0  0  0  0
  4  6  1  0  0  0  0
  6  7  4  0  0  0  0
  2  7  1  0  0  0  0
  7  8  4  0  0  0  0
  8  9  4  0  0  0  0
  9 10  4  0  0  0  0
 10 11  4  0  0  0  0
 11 12  4  0  0  0  0
 12 13  4  0  0  0  0
 13 14  4  0  0  0  0
  9 14  4  0  0  0  0
 14 15  4  0  0  0  0
 16 15  1  0  0  0  0
 16 17  1  0  0  0  0
 17 18  1  0  0  0  0
 19 18  1  0  0  0  0
 19 20  1  1  0  0  0
 16 20  1  6  0  0  0
 19 21  1  0  0  0  0
 21 22  4  0  0  0  0
 22 23  4  0  0  0  0
 23 24  4  0  0  0  0
 24 25  4  0  0  0  0
 25 26  4  0  0  0  0
 26 27  4  0  0  0  0
 22 27  4  0  0  0  0
 27 28  4  0  0  0  0
  6 28  4  0  0  0  0
 28 29  4  0  0  0  0
 21 29  4  0  0  0  0
 29 30  4  0  0  0  0
  8 30  4  0  0  0  0
 15 30  4  0  0  0  0
M  END
> <BindingDB_ID/CHEMBL_ID>
17140

> <pKi>
8.3

> <Target Name>
Cyclin-A2/Cyclin-dependent kinase 2

> <Target Source Organism>
Homo sapiens

> <Target Uniprot>
P24941

> <Article DOI>
10.1074/jbc.M201233200

$$$$

  Mrv2316 09262419122D          

 31 34  0  0  1  0            999 V2000
    1.3222   -1.7116    0.0000 C   0  0  0  0  0  0  0  0  0  0  0  0
    2.0367   -1.2991    0.0000 C   0  0  0  0  0  0  0  0  0  0  0  0
    2.0367   -0.4741    0.0000 C   0  0  0  0  0  0  0  0  0  0  0  0
    2.7512   -0.0616    0.0000 N   0  0  0  0  0  0  0  0  0  0  0  0
    3.4656   -0.4741    0.0000 C   0  0  0  0  0  0  0  0  0  0  0  0
    4.1801   -0.0616    0.0000 N   0  0  0  0  0  0  0  0  0  0  0  0
    4.1801    0.7634    0.0000 C   0  0  0  0  0  0  0  0  0  0  0  0
    3.4656    1.1759    0.0000 C   0  0  0  0  0  0  0  0  0  0  0  0
    3.4656    2.0009    0.0000 C   0  0  0  0  0  0  0  0  0  0  0  0
    4.1801    2.4134    0.0000 C   0  0  0  0  0  0  0  0  0  0  0  0
    4.8946    2.0009    0.0000 C   0  0  0  0  0  0  0  0  0  0  0  0
    4.8946    1.1759    0.0000 C   0  0  0  0  0  0  0  0  0  0  0  0
    3.4656   -1.2991    0.0000 N   0  0  0  0  0  0  0  0  0  0  0  0
    2.7512   -1.7116    0.0000 C   0  0  0  0  0  0  0  0  0  0  0  0
    2.7512   -2.5366    0.0000 C   0  0  0  0  0  0  0  0  0  0  0  0
    3.4186   -3.0215    0.0000 C   0  0  0  0  0  0  0  0  0  0  0  0
    3.1637   -3.8062    0.0000 N   0  0  0  0  0  0  0  0  0  0  0  0
    2.3387   -3.8062    0.0000 C   0  0  0  0  0  0  0  0  0  0  0  0
    2.0837   -3.0215    0.0000 C   0  0  0  0  0  0  0  0  0  0  0  0
    1.8538   -4.4736    0.0000 C   0  0  0  0  0  0  0  0  0  0  0  0
    2.1893   -5.2273    0.0000 O   0  0  0  0  0  0  0  0  0  0  0  0
    1.0333   -4.3874    0.0000 N   0  0  0  0  0  0  0  0  0  0  0  0
    0.5484   -5.0548    0.0000 C   0  0  2  0  0  0  0  0  0  0  0  0
    0.8839   -5.8085    0.0000 C   0  0  0  0  0  0  0  0  0  0  0  0
    0.3990   -6.4759    0.0000 O   0  0  0  0  0  0  0  0  0  0  0  0
   -0.2721   -4.9686    0.0000 C   0  0  0  0  0  0  0  0  0  0  0  0
   -0.7571   -5.6360    0.0000 C   0  0  0  0  0  0  0  0  0  0  0  0
   -1.5775   -5.5498    0.0000 C   0  0  0  0  0  0  0  0  0  0  0  0
   -1.9131   -4.7961    0.0000 C   0  0  0  0  0  0  0  0  0  0  0  0
   -1.4282   -4.1286    0.0000 C   0  0  0  0  0  0  0  0  0  0  0  0
   -0.6077   -4.2149    0.0000 C   0  0  0  0  0  0  0  0  0  0  0  0
  1  2  1  0  0  0  0
  2  3  4  0  0  0  0
  3  4  4  0  0  0  0
  4  5  4  0  0  0  0
  5  6  1  0  0  0  0
  6  7  1  0  0  0  0
  7  8  4  0  0  0  0
  8  9  4  0  0  0  0
  9 10  4  0  0  0  0
 10 11  4  0  0  0  0
 11 12  4  0  0  0  0
  7 12  4  0  0  0  0
  5 13  4  0  0  0  0
 13 14  4  0  0  0  0
  2 14  4  0  0  0  0
 14 15  1  0  0  0  0
 15 16  4  0  0  0  0
 16 17  4  0  0  0  0
 17 18  4  0  0  0  0
 18 19  4  0  0  0  0
 15 19  4  0  0  0  0
 18 20  1  0  0  0  0
 20 21  2  0  0  0  0
 20 22  1  0  0  0  0
 23 22  1  6  0  0  0
 23 24  1  0  0  0  0
 24 25  1  0  0  0  0
 23 26  1  0  0  0  0
 26 27  4  0  0  0  0
 27 28  4  0  0  0  0
 28 29  4  0  0  0  0
 29 30  4  0  0  0  0
 30 31  4  0  0  0  0
 26 31  4  0  0  0  0
M  STY  1   1 DAT
M  SAL   1  1  17
M  SDT   1 MRV_IMPLICIT_H                                        
M  SDD   1     0.5304   -0.4125    DR    ALL  0       0  
M  SED   1 IMPL_H1
M  END
> <BindingDB_ID/CHEMBL_ID>
35641

> <pKi>
7.8

> <Target Name>
Cyclin-A2/Cyclin-dependent kinase 2

> <Target Source Organism>
Homo sapiens

> <Target Uniprot>
P24941

> <Article DOI>
10.1021/jm900630q

$$$$

  Mrv2316 09262419122D          

 32 35  0  0  1  0            999 V2000
    1.3222   -1.7116    0.0000 C   0  0  0  0  0  0  0  0  0  0  0  0
    2.0367   -1.2991    0.0000 C   0  0  0  0  0  0  0  0  0  0  0  0
    2.0367   -0.4741    0.0000 C   0  0  0  0  0  0  0  0  0  0  0  0
    2.7512   -0.0616    0.0000 N   0  0  0  0  0  0  0  0  0  0  0  0
    3.4656   -0.4741    0.0000 C   0  0  0  0  0  0  0  0  0  0  0  0
    4.1801   -0.0616    0.0000 N   0  0  0  0  0  0  0  0  0  0  0  0
    4.1801    0.7634    0.0000 C   0  0  0  0  0  0  0  0  0  0  0  0
    3.4656    1.1759    0.0000 C   0  0  0  0  0  0  0  0  0  0  0  0
    3.4656    2.0009    0.0000 C   0  0  0  0  0  0  0  0  0  0  0  0
    4.1801    2.4134    0.0000 C   0  0  0  0  0  0  0  0  0  0  0  0
    4.8946    2.0009    0.0000 C   0  0  0  0  0  0  0  0  0  0  0  0
    4.8946    1.1759    0.0000 C   0  0  0  0  0  0  0  0  0  0  0  0
    5.6091    0.7634    0.0000 Cl  0  0  0  0  0  0  0  0  0  0  0  0
    3.4656   -1.2991    0.0000 N   0  0  0  0  0  0  0  0  0  0  0  0
    2.7512   -1.7116    0.0000 C   0  0  0  0  0  0  0  0  0  0  0  0
    2.7512   -2.5366    0.0000 C   0  0  0  0  0  0  0  0  0  0  0  0
    3.4186   -3.0215    0.0000 C   0  0  0  0  0  0  0  0  0  0  0  0
    3.1637   -3.8062    0.0000 N   0  0  0  0  0  0  0  0  0  0  0  0
    2.3387   -3.8062    0.0000 C   0  0  0  0  0  0  0  0  0  0  0  0
    2.0837   -3.0215    0.0000 C   0  0  0  0  0  0  0  0  0  0  0  0
    1.8538   -4.4736    0.0000 C   0  0  0  0  0  0  0  0  0  0  0  0
    2.1893   -5.2273    0.0000 O   0  0  0  0  0  0  0  0  0  0  0  0
    1.0333   -4.3874    0.0000 N   0  0  0  0  0  0  0  0  0  0  0  0
    0.5484   -5.0548    0.0000 C   0  0  2  0  0  0  0  0  0  0  0  0
    0.8839   -5.8085    0.0000 C   0  0  0  0  0  0  0  0  0  0  0  0
    0.3990   -6.4759    0.0000 O   0  0  0  0  0  0  0  0  0  0  0  0
   -0.2721   -4.9686    0.0000 C   0  0  0  0  0  0  0  0  0  0  0  0
   -0.7571   -5.6360    0.0000 C   0  0  0  0  0  0  0  0  0  0  0  0
   -1.5775   -5.5498    0.0000 C   0  0  0  0  0  0  0  0  0  0  0  0
   -1.9131   -4.7961    0.0000 C   0  0  0  0  0  0  0  0  0  0  0  0
   -1.4282   -4.1286    0.0000 C   0  0  0  0  0  0  0  0  0  0  0  0
   -0.6077   -4.2149    0.0000 C   0  0  0  0  0  0  0  0  0  0  0  0
  1  2  1  0  0  0  0
  2  3  4  0  0  0  0
  3  4  4  0  0  0  0
  4  5  4  0  0  0  0
  5  6  1  0  0  0  0
  6  7  1  0  0  0  0
  7  8  4  0  0  0  0
  8  9  4  0  0  0  0
  9 10  4  0  0  0  0
 10 11  4  0  0  0  0
 11 12  4  0  0  0  0
  7 12  4  0  0  0  0
 12 13  1  0  0  0  0
  5 14  4  0  0  0  0
 14 15  4  0  0  0  0
  2 15  4  0  0  0  0
 15 16  1  0  0  0  0
 16 17  4  0  0  0  0
 17 18  4  0  0  0  0
 18 19  4  0  0  0  0
 19 20  4  0  0  0  0
 16 20  4  0  0  0  0
 19 21  1  0  0  0  0
 21 22  2  0  0  0  0
 21 23  1  0  0  0  0
 24 23  1  6  0  0  0
 24 25  1  0  0  0  0
 25 26  1  0  0  0  0
 24 27  1  0  0  0  0
 27 28  4  0  0  0  0
 28 29  4  0  0  0  0
 29 30  4  0  0  0  0
 30 31  4  0  0  0  0
 31 32  4  0  0  0  0
 27 32  4  0  0  0  0
M  STY  1   1 DAT
M  SAL   1  1  18
M  SDT   1 MRV_IMPLICIT_H                                        
M  SDD   1     0.5304   -0.4125    DR    ALL  0       0  
M  SED   1 IMPL_H1
M  END
> <BindingDB_ID/CHEMBL_ID>
35642

> <pKi>
6.6

> <Target Name>
Cyclin-A2/Cyclin-dependent kinase 2

> <Target Source Organism>
Homo sapiens

> <Target Uniprot>
P24941

> <Article DOI>
10.1021/jm900630q

$$$$

  Mrv2316 09262419122D          

 32 35  0  0  1  0            999 V2000
   -0.1067    0.7634    0.0000 C   0  0  0  0  0  0  0  0  0  0  0  0
    0.6078    1.1759    0.0000 C   0  0  0  0  0  0  0  0  0  0  0  0
    0.6078    2.0009    0.0000 C   0  0  0  0  0  0  0  0  0  0  0  0
    1.3222    2.4134    0.0000 C   0  0  0  0  0  0  0  0  0  0  0  0
    2.0367    2.0009    0.0000 C   0  0  0  0  0  0  0  0  0  0  0  0
    2.0367    1.1759    0.0000 C   0  0  0  0  0  0  0  0  0  0  0  0
    1.3222    0.7634    0.0000 C   0  0  0  0  0  0  0  0  0  0  0  0
    1.3222   -0.0616    0.0000 N   0  0  0  0  0  0  0  0  0  0  0  0
    2.0367   -0.4741    0.0000 C   0  0  0  0  0  0  0  0  0  0  0  0
    2.7512   -0.0616    0.0000 N   0  0  0  0  0  0  0  0  0  0  0  0
    3.4656   -0.4741    0.0000 C   0  0  0  0  0  0  0  0  0  0  0  0
    3.4656   -1.2991    0.0000 C   0  0  0  0  0  0  0  0  0  0  0  0
    4.1801   -1.7116    0.0000 C   0  0  0  0  0  0  0  0  0  0  0  0
    2.7512   -1.7116    0.0000 C   0  0  0  0  0  0  0  0  0  0  0  0
    2.0367   -1.2991    0.0000 N   0  0  0  0  0  0  0  0  0  0  0  0
    2.7512   -2.5366    0.0000 C   0  0  0  0  0  0  0  0  0  0  0  0
    3.4186   -3.0215    0.0000 C   0  0  0  0  0  0  0  0  0  0  0  0
    3.1637   -3.8062    0.0000 N   0  0  0  0  0  0  0  0  0  0  0  0
    2.3387   -3.8062    0.0000 C   0  0  0  0  0  0  0  0  0  0  0  0
    2.0837   -3.0215    0.0000 C   0  0  0  0  0  0  0  0  0  0  0  0
    1.8538   -4.4736    0.0000 C   0  0  0  0  0  0  0  0  0  0  0  0
    2.1893   -5.2273    0.0000 O   0  0  0  0  0  0  0  0  0  0  0  0
    1.0333   -4.3874    0.0000 N   0  0  0  0  0  0  0  0  0  0  0  0
    0.5484   -5.0548    0.0000 C   0  0  2  0  0  0  0  0  0  0  0  0
    0.8839   -5.8085    0.0000 C   0  0  0  0  0  0  0  0  0  0  0  0
    0.3990   -6.4759    0.0000 O   0  0  0  0  0  0  0  0  0  0  0  0
   -0.2721   -4.9686    0.0000 C   0  0  0  0  0  0  0  0  0  0  0  0
   -0.7571   -5.6360    0.0000 C   0  0  0  0  0  0  0  0  0  0  0  0
   -1.5775   -5.5498    0.0000 C   0  0  0  0  0  0  0  0  0  0  0  0
   -1.9131   -4.7961    0.0000 C   0  0  0  0  0  0  0  0  0  0  0  0
   -1.4282   -4.1286    0.0000 C   0  0  0  0  0  0  0  0  0  0  0  0
   -0.6077   -4.2149    0.0000 C   0  0  0  0  0  0  0  0  0  0  0  0
  1  2  1  0  0  0  0
  2  3  4  0  0  0  0
  3  4  4  0  0  0  0
  4  5  4  0  0  0  0
  5  6  4  0  0  0  0
  6  7  4  0  0  0  0
  2  7  4  0  0  0  0
  7  8  1  0  0  0  0
  8  9  1  0  0  0  0
  9 10  4  0  0  0  0
 10 11  4  0  0  0  0
 11 12  4  0  0  0  0
 12 13  1  0  0  0  0
 12 14  4  0  0  0  0
 14 15  4  0  0  0  0
  9 15  4  0  0  0  0
 14 16  1  0  0  0  0
 16 17  4  0  0  0  0
 17 18  4  0  0  0  0
 18 19  4  0  0  0  0
 19 20  4  0  0  0  0
 16 20  4  0  0  0  0
 19 21  1  0  0  0  0
 21 22  2  0  0  0  0
 21 23  1  0  0  0  0
 24 23  1  6  0  0  0
 24 25  1  0  0  0  0
 25 26  1  0  0  0  0
 24 27  1  0  0  0  0
 27 28  4  0  0  0  0
 28 29  4  0  0  0  0
 29 30  4  0  0  0  0
 30 31  4  0  0  0  0
 31 32  4  0  0  0  0
 27 32  4  0  0  0  0
M  STY  1   1 DAT
M  SAL   1  1  18
M  SDT   1 MRV_IMPLICIT_H                                        
M  SDD   1     0.5304   -0.4125    DR    ALL  0       0  
M  SED   1 IMPL_H1
M  END
> <BindingDB_ID/CHEMBL_ID>
35643

> <pKi>
6.9

> <Target Name>
Cyclin-A2/Cyclin-dependent kinase 2

> <Target Source Organism>
Homo sapiens

> <Target Uniprot>
P24941

> <Article DOI>
10.1021/jm900630q

$$$$

  Mrv2316 09262419122D          

 33 36  0  0  1  0            999 V2000
   -5.6091    2.4134    0.0000 C   0  0  0  0  0  0  0  0  0  0  0  0
   -4.8946    2.0009    0.0000 C   0  0  0  0  0  0  0  0  0  0  0  0
   -4.1801    2.4134    0.0000 C   0  0  0  0  0  0  0  0  0  0  0  0
   -4.1801    3.2384    0.0000 C   0  0  0  0  0  0  0  0  0  0  0  0
   -3.4656    3.6509    0.0000 C   0  0  0  0  0  0  0  0  0  0  0  0
   -2.7512    3.2384    0.0000 C   0  0  0  0  0  0  0  0  0  0  0  0
   -2.7512    2.4134    0.0000 C   0  0  0  0  0  0  0  0  0  0  0  0
   -3.4656    2.0009    0.0000 C   0  0  0  0  0  0  0  0  0  0  0  0
   -3.4656    1.1759    0.0000 N   0  0  0  0  0  0  0  0  0  0  0  0
   -2.7512    0.7634    0.0000 C   0  0  0  0  0  0  0  0  0  0  0  0
   -2.0367    1.1759    0.0000 N   0  0  0  0  0  0  0  0  0  0  0  0
   -1.3222    0.7634    0.0000 C   0  0  0  0  0  0  0  0  0  0  0  0
   -1.3222   -0.0616    0.0000 C   0  0  0  0  0  0  0  0  0  0  0  0
   -0.6078   -0.4741    0.0000 C   0  0  0  0  0  0  0  0  0  0  0  0
   -2.0367   -0.4741    0.0000 C   0  0  0  0  0  0  0  0  0  0  0  0
   -2.7512   -0.0616    0.0000 N   0  0  0  0  0  0  0  0  0  0  0  0
   -2.0367   -1.2991    0.0000 C   0  0  0  0  0  0  0  0  0  0  0  0
   -1.3693   -1.7840    0.0000 C   0  0  0  0  0  0  0  0  0  0  0  0
   -1.6242   -2.5687    0.0000 N   0  0  0  0  0  0  0  0  0  0  0  0
   -2.4492   -2.5687    0.0000 C   0  0  0  0  0  0  0  0  0  0  0  0
   -2.7041   -1.7840    0.0000 C   0  0  0  0  0  0  0  0  0  0  0  0
   -2.9341   -3.2361    0.0000 C   0  0  0  0  0  0  0  0  0  0  0  0
   -2.5986   -3.9898    0.0000 O   0  0  0  0  0  0  0  0  0  0  0  0
   -3.7546   -3.1499    0.0000 N   0  0  0  0  0  0  0  0  0  0  0  0
   -4.2395   -3.8173    0.0000 C   0  0  2  0  0  0  0  0  0  0  0  0
   -5.0600   -3.7311    0.0000 C   0  0  0  0  0  0  0  0  0  0  0  0
   -5.3956   -2.9774    0.0000 O   0  0  0  0  0  0  0  0  0  0  0  0
   -3.9040   -4.5710    0.0000 C   0  0  0  0  0  0  0  0  0  0  0  0
   -3.0835   -4.6572    0.0000 C   0  0  0  0  0  0  0  0  0  0  0  0
   -2.7479   -5.4109    0.0000 C   0  0  0  0  0  0  0  0  0  0  0  0
   -3.2329   -6.0783    0.0000 C   0  0  0  0  0  0  0  0  0  0  0  0
   -4.0533   -5.9921    0.0000 C   0  0  0  0  0  0  0  0  0  0  0  0
   -4.3889   -5.2384    0.0000 C   0  0  0  0  0  0  0  0  0  0  0  0
  1  2  1  0  0  0  0
  2  3  1  0  0  0  0
  3  4  4  0  0  0  0
  4  5  4  0  0  0  0
  5  6  4  0  0  0  0
  6  7  4  0  0  0  0
  7  8  4  0  0  0  0
  3  8  4  0  0  0  0
  8  9  1  0  0  0  0
  9 10  1  0  0  0  0
 10 11  4  0  0  0  0
 11 12  4  0  0  0  0
 12 13  4  0  0  0  0
 13 14  1  0  0  0  0
 13 15  4  0  0  0  0
 15 16  4  0  0  0  0
 10 16  4  0  0  0  0
 15 17  1  0  0  0  0
 17 18  4  0  0  0  0
 18 19  4  0  0  0  0
 19 20  4  0  0  0  0
 20 21  4  0  0  0  0
 17 21  4  0  0  0  0
 20 22  1  0  0  0  0
 22 23  2  0  0  0  0
 22 24  1  0  0  0  0
 25 24  1  1  0  0  0
 25 26  1  0  0  0  0
 26 27  1  0  0  0  0
 25 28  1  0  0  0  0
 28 29  4  0  0  0  0
 29 30  4  0  0  0  0
 30 31  4  0  0  0  0
 31 32  4  0  0  0  0
 32 33  4  0  0  0  0
 28 33  4  0  0  0  0
M  STY  1   1 DAT
M  SAL   1  1  19
M  SDT   1 MRV_IMPLICIT_H                                        
M  SDD   1     0.5304   -0.4125    DR    ALL  0       0  
M  SED   1 IMPL_H1
M  END
> <BindingDB_ID/CHEMBL_ID>
35644

> <pKi>
6.7

> <Target Name>
Cyclin-A2/Cyclin-dependent kinase 2

> <Target Source Organism>
Homo sapiens

> <Target Uniprot>
P24941

> <Article DOI>
10.1021/jm900630q

$$$$

  Mrv2316 09262419122D          

 32 35  0  0  1  0            999 V2000
    1.3222   -1.7116    0.0000 C   0  0  0  0  0  0  0  0  0  0  0  0
    2.0367   -1.2991    0.0000 C   0  0  0  0  0  0  0  0  0  0  0  0
    2.0367   -0.4741    0.0000 C   0  0  0  0  0  0  0  0  0  0  0  0
    2.7512   -0.0616    0.0000 N   0  0  0  0  0  0  0  0  0  0  0  0
    3.4656   -0.4741    0.0000 C   0  0  0  0  0  0  0  0  0  0  0  0
    4.1801   -0.0616    0.0000 N   0  0  0  0  0  0  0  0  0  0  0  0
    4.1801    0.7634    0.0000 C   0  0  0  0  0  0  0  0  0  0  0  0
    3.4656    1.1759    0.0000 C   0  0  0  0  0  0  0  0  0  0  0  0
    3.4656    2.0009    0.0000 C   0  0  0  0  0  0  0  0  0  0  0  0
    4.1801    2.4134    0.0000 C   0  0  0  0  0  0  0  0  0  0  0  0
    4.8946    2.0009    0.0000 C   0  0  0  0  0  0  0  0  0  0  0  0
    4.8946    1.1759    0.0000 C   0  0  0  0  0  0  0  0  0  0  0  0
    5.6091    0.7634    0.0000 F   0  0  0  0  0  0  0  0  0  0  0  0
    3.4656   -1.2991    0.0000 N   0  0  0  0  0  0  0  0  0  0  0  0
    2.7512   -1.7116    0.0000 C   0  0  0  0  0  0  0  0  0  0  0  0
    2.7512   -2.5366    0.0000 C   0  0  0  0  0  0  0  0  0  0  0  0
    3.4186   -3.0215    0.0000 C   0  0  0  0  0  0  0  0  0  0  0  0
    3.1637   -3.8062    0.0000 N   0  0  0  0  0  0  0  0  0  0  0  0
    2.3387   -3.8062    0.0000 C   0  0  0  0  0  0  0  0  0  0  0  0
    2.0837   -3.0215    0.0000 C   0  0  0  0  0  0  0  0  0  0  0  0
    1.8538   -4.4736    0.0000 C   0  0  0  0  0  0  0  0  0  0  0  0
    2.1893   -5.2273    0.0000 O   0  0  0  0  0  0  0  0  0  0  0  0
    1.0333   -4.3874    0.0000 N   0  0  0  0  0  0  0  0  0  0  0  0
    0.5484   -5.0548    0.0000 C   0  0  2  0  0  0  0  0  0  0  0  0
    0.8839   -5.8085    0.0000 C   0  0  0  0  0  0  0  0  0  0  0  0
    0.3990   -6.4759    0.0000 O   0  0  0  0  0  0  0  0  0  0  0  0
   -0.2721   -4.9686    0.0000 C   0  0  0  0  0  0  0  0  0  0  0  0
   -0.7571   -5.6360    0.0000 C   0  0  0  0  0  0  0  0  0  0  0  0
   -1.5775   -5.5498    0.0000 C   0  0  0  0  0  0  0  0  0  0  0  0
   -1.9131   -4.7961    0.0000 C   0  0  0  0  0  0  0  0  0  0  0  0
   -1.4282   -4.1286    0.0000 C   0  0  0  0  0  0  0  0  0  0  0  0
   -0.6077   -4.2149    0.0000 C   0  0  0  0  0  0  0  0  0  0  0  0
  1  2  1  0  0  0  0
  2  3  4  0  0  0  0
  3  4  4  0  0  0  0
  4  5  4  0  0  0  0
  5  6  1  0  0  0  0
  6  7  1  0  0  0  0
  7  8  4  0  0  0  0
  8  9  4  0  0  0  0
  9 10  4  0  0  0  0
 10 11  4  0  0  0  0
 11 12  4  0  0  0  0
  7 12  4  0  0  0  0
 12 13  1  0  0  0  0
  5 14  4  0  0  0  0
 14 15  4  0  0  0  0
  2 15  4  0  0  0  0
 15 16  1  0  0  0  0
 16 17  4  0  0  0  0
 17 18  4  0  0  0  0
 18 19  4  0  0  0  0
 19 20  4  0  0  0  0
 16 20  4  0  0  0  0
 19 21  1  0  0  0  0
 21 22  2  0  0  0  0
 21 23  1  0  0  0  0
 24 23  1  6  0  0  0
 24 25  1  0  0  0  0
 25 26  1  0  0  0  0
 24 27  1  0  0  0  0
 27 28  4  0  0  0  0
 28 29  4  0  0  0  0
 29 30  4  0  0  0  0
 30 31  4  0  0  0  0
 31 32  4  0  0  0  0
 27 32  4  0  0  0  0
M  STY  1   1 DAT
M  SAL   1  1  18
M  SDT   1 MRV_IMPLICIT_H                                        
M  SDD   1     0.5304   -0.4125    DR    ALL  0       0  
M  SED   1 IMPL_H1
M  END
> <BindingDB_ID/CHEMBL_ID>
35645

> <pKi>
7.2

> <Target Name>
Cyclin-A2/Cyclin-dependent kinase 2

> <Target Source Organism>
Homo sapiens

> <Target Uniprot>
P24941

> <Article DOI>
10.1021/jm900630q

$$$$

  Mrv2316 09262419122D          

 31 34  0  0  1  0            999 V2000
    1.3222   -1.7116    0.0000 C   0  0  0  0  0  0  0  0  0  0  0  0
    2.0367   -1.2991    0.0000 C   0  0  0  0  0  0  0  0  0  0  0  0
    2.0367   -0.4741    0.0000 C   0  0  0  0  0  0  0  0  0  0  0  0
    2.7512   -0.0616    0.0000 N   0  0  0  0  0  0  0  0  0  0  0  0
    3.4656   -0.4741    0.0000 C   0  0  0  0  0  0  0  0  0  0  0  0
    4.1801   -0.0616    0.0000 N   0  0  0  0  0  0  0  0  0  0  0  0
    4.1801    0.7634    0.0000 C   0  0  0  0  0  0  0  0  0  0  0  0
    3.4656    1.1759    0.0000 C   0  0  0  0  0  0  0  0  0  0  0  0
    3.4656    2.0009    0.0000 C   0  0  0  0  0  0  0  0  0  0  0  0
    4.1801    2.4134    0.0000 C   0  0  0  0  0  0  0  0  0  0  0  0
    4.8946    2.0009    0.0000 C   0  0  0  0  0  0  0  0  0  0  0  0
    4.8946    1.1759    0.0000 C   0  0  0  0  0  0  0  0  0  0  0  0
    3.4656   -1.2991    0.0000 N   0  0  0  0  0  0  0  0  0  0  0  0
    2.7512   -1.7116    0.0000 C   0  0  0  0  0  0  0  0  0  0  0  0
    2.7512   -2.5366    0.0000 C   0  0  0  0  0  0  0  0  0  0  0  0
    3.4186   -3.0215    0.0000 C   0  0  0  0  0  0  0  0  0  0  0  0
    3.1637   -3.8062    0.0000 N   0  0  0  0  0  0  0  0  0  0  0  0
    2.3387   -3.8062    0.0000 C   0  0  0  0  0  0  0  0  0  0  0  0
    2.0837   -3.0215    0.0000 C   0  0  0  0  0  0  0  0  0  0  0  0
    1.8538   -4.4736    0.0000 C   0  0  0  0  0  0  0  0  0  0  0  0
    2.1893   -5.2273    0.0000 O   0  0  0  0  0  0  0  0  0  0  0  0
    1.0333   -4.3874    0.0000 N   0  0  0  0  0  0  0  0  0  0  0  0
    0.5484   -5.0548    0.0000 C   0  0  1  0  0  0  0  0  0  0  0  0
    0.8839   -5.8085    0.0000 C   0  0  0  0  0  0  0  0  0  0  0  0
    0.3990   -6.4759    0.0000 O   0  0  0  0  0  0  0  0  0  0  0  0
   -0.2721   -4.9686    0.0000 C   0  0  0  0  0  0  0  0  0  0  0  0
   -0.7571   -5.6360    0.0000 C   0  0  0  0  0  0  0  0  0  0  0  0
   -1.5775   -5.5498    0.0000 C   0  0  0  0  0  0  0  0  0  0  0  0
   -1.9131   -4.7961    0.0000 C   0  0  0  0  0  0  0  0  0  0  0  0
   -1.4282   -4.1286    0.0000 C   0  0  0  0  0  0  0  0  0  0  0  0
   -0.6077   -4.2149    0.0000 C   0  0  0  0  0  0  0  0  0  0  0  0
  1  2  1  0  0  0  0
  2  3  4  0  0  0  0
  3  4  4  0  0  0  0
  4  5  4  0  0  0  0
  5  6  1  0  0  0  0
  6  7  1  0  0  0  0
  7  8  4  0  0  0  0
  8  9  4  0  0  0  0
  9 10  4  0  0  0  0
 10 11  4  0  0  0  0
 11 12  4  0  0  0  0
  7 12  4  0  0  0  0
  5 13  4  0  0  0  0
 13 14  4  0  0  0  0
  2 14  4  0  0  0  0
 14 15  1  0  0  0  0
 15 16  4  0  0  0  0
 16 17  4  0  0  0  0
 17 18  4  0  0  0  0
 18 19  4  0  0  0  0
 15 19  4  0  0  0  0
 18 20  1  0  0  0  0
 20 21  2  0  0  0  0
 20 22  1  0  0  0  0
 23 22  1  1  0  0  0
 23 24  1  0  0  0  0
 24 25  1  0  0  0  0
 23 26  1  0  0  0  0
 26 27  4  0  0  0  0
 27 28  4  0  0  0  0
 28 29  4  0  0  0  0
 29 30  4  0  0  0  0
 30 31  4  0  0  0  0
 26 31  4  0  0  0  0
M  STY  1   1 DAT
M  SAL   1  1  17
M  SDT   1 MRV_IMPLICIT_H                                        
M  SDD   1     0.5304   -0.4125    DR    ALL  0       0  
M  SED   1 IMPL_H1
M  END
> <BindingDB_ID/CHEMBL_ID>
35648

> <pKi>
6.0

> <Target Name>
Cyclin-A2/Cyclin-dependent kinase 2

> <Target Source Organism>
Homo sapiens

> <Target Uniprot>
P24941

> <Article DOI>
10.1021/jm900630q

$$$$

  Mrv2316 09262419122D          

 32 35  0  0  1  0            999 V2000
    1.3222   -1.7116    0.0000 C   0  0  0  0  0  0  0  0  0  0  0  0
    2.0367   -1.2991    0.0000 C   0  0  0  0  0  0  0  0  0  0  0  0
    2.0367   -0.4741    0.0000 C   0  0  0  0  0  0  0  0  0  0  0  0
    2.7512   -0.0616    0.0000 N   0  0  0  0  0  0  0  0  0  0  0  0
    3.4656   -0.4741    0.0000 C   0  0  0  0  0  0  0  0  0  0  0  0
    4.1801   -0.0616    0.0000 N   0  0  0  0  0  0  0  0  0  0  0  0
    4.1801    0.7634    0.0000 C   0  0  0  0  0  0  0  0  0  0  0  0
    3.4656    1.1759    0.0000 C   0  0  0  0  0  0  0  0  0  0  0  0
    3.4656    2.0009    0.0000 C   0  0  0  0  0  0  0  0  0  0  0  0
    4.1801    2.4134    0.0000 C   0  0  0  0  0  0  0  0  0  0  0  0
    4.8946    2.0009    0.0000 C   0  0  0  0  0  0  0  0  0  0  0  0
    4.8946    1.1759    0.0000 C   0  0  0  0  0  0  0  0  0  0  0  0
    3.4656   -1.2991    0.0000 N   0  0  0  0  0  0  0  0  0  0  0  0
    2.7512   -1.7116    0.0000 C   0  0  0  0  0  0  0  0  0  0  0  0
    2.7512   -2.5366    0.0000 C   0  0  0  0  0  0  0  0  0  0  0  0
    3.4186   -3.0215    0.0000 C   0  0  0  0  0  0  0  0  0  0  0  0
    3.1637   -3.8062    0.0000 N   0  0  0  0  0  0  0  0  0  0  0  0
    2.3387   -3.8062    0.0000 C   0  0  0  0  0  0  0  0  0  0  0  0
    2.0837   -3.0215    0.0000 C   0  0  0  0  0  0  0  0  0  0  0  0
    1.8538   -4.4736    0.0000 C   0  0  0  0  0  0  0  0  0  0  0  0
    2.1893   -5.2273    0.0000 O   0  0  0  0  0  0  0  0  0  0  0  0
    1.0333   -4.3874    0.0000 N   0  0  0  0  0  0  0  0  0  0  0  0
    0.5484   -5.0548    0.0000 C   0  0  2  0  0  0  0  0  0  0  0  0
    0.8839   -5.8085    0.0000 C   0  0  0  0  0  0  0  0  0  0  0  0
    0.3990   -6.4759    0.0000 O   0  0  0  0  0  0  0  0  0  0  0  0
   -0.2721   -4.9686    0.0000 C   0  0  0  0  0  0  0  0  0  0  0  0
   -0.7571   -5.6360    0.0000 C   0  0  0  0  0  0  0  0  0  0  0  0
   -1.5775   -5.5498    0.0000 C   0  0  0  0  0  0  0  0  0  0  0  0
   -1.9131   -4.7961    0.0000 C   0  0  0  0  0  0  0  0  0  0  0  0
   -1.4282   -4.1286    0.0000 C   0  0  0  0  0  0  0  0  0  0  0  0
   -1.7637   -3.3750    0.0000 Cl  0  0  0  0  0  0  0  0  0  0  0  0
   -0.6077   -4.2149    0.0000 C   0  0  0  0  0  0  0  0  0  0  0  0
  1  2  1  0  0  0  0
  2  3  4  0  0  0  0
  3  4  4  0  0  0  0
  4  5  4  0  0  0  0
  5  6  1  0  0  0  0
  6  7  1  0  0  0  0
  7  8  4  0  0  0  0
  8  9  4  0  0  0  0
  9 10  4  0  0  0  0
 10 11  4  0  0  0  0
 11 12  4  0  0  0  0
  7 12  4  0  0  0  0
  5 13  4  0  0  0  0
 13 14  4  0  0  0  0
  2 14  4  0  0  0  0
 14 15  1  0  0  0  0
 15 16  4  0  0  0  0
 16 17  4  0  0  0  0
 17 18  4  0  0  0  0
 18 19  4  0  0  0  0
 15 19  4  0  0  0  0
 18 20  1  0  0  0  0
 20 21  2  0  0  0  0
 20 22  1  0  0  0  0
 23 22  1  6  0  0  0
 23 24  1  0  0  0  0
 24 25  1  0  0  0  0
 23 26  1  0  0  0  0
 26 27  4  0  0  0  0
 27 28  4  0  0  0  0
 28 29  4  0  0  0  0
 29 30  4  0  0  0  0
 30 31  1  0  0  0  0
 30 32  4  0  0  0  0
 26 32  4  0  0  0  0
M  STY  1   1 DAT
M  SAL   1  1  17
M  SDT   1 MRV_IMPLICIT_H                                        
M  SDD   1     0.5304   -0.4125    DR    ALL  0       0  
M  SED   1 IMPL_H1
M  END
> <BindingDB_ID/CHEMBL_ID>
35650

> <pKi>
6.5

> <Target Name>
Cyclin-A2/Cyclin-dependent kinase 2

> <Target Source Organism>
Homo sapiens

> <Target Uniprot>
P24941

> <Article DOI>
10.1021/jm900630q

$$$$

  Mrv2316 09262419122D          

 32 35  0  0  1  0            999 V2000
    5.0013   -0.4125    0.0000 C   0  0  0  0  0  0  0  0  0  0  0  0
    5.0013   -1.2375    0.0000 C   0  0  0  0  0  0  0  0  0  0  0  0
    5.7158   -1.6500    0.0000 C   0  0  0  0  0  0  0  0  0  0  0  0
    5.7158   -2.4750    0.0000 C   0  0  0  0  0  0  0  0  0  0  0  0
    5.0013   -2.8875    0.0000 C   0  0  0  0  0  0  0  0  0  0  0  0
    4.2868   -2.4750    0.0000 C   0  0  0  0  0  0  0  0  0  0  0  0
    4.2868   -1.6500    0.0000 C   0  0  0  0  0  0  0  0  0  0  0  0
    3.5724   -2.8875    0.0000 C   0  0  1  0  0  0  0  0  0  0  0  0
    3.5724   -3.7125    0.0000 C   0  0  0  0  0  0  0  0  0  0  0  0
    4.2868   -4.1250    0.0000 O   0  0  0  0  0  0  0  0  0  0  0  0
    2.8579   -2.4750    0.0000 N   0  0  0  0  0  0  0  0  0  0  0  0
    2.1434   -2.8875    0.0000 C   0  0  0  0  0  0  0  0  0  0  0  0
    1.4289   -2.4750    0.0000 O   0  0  0  0  0  0  0  0  0  0  0  0
    2.1434   -3.7125    0.0000 C   0  0  0  0  0  0  0  0  0  0  0  0
    2.8109   -4.1974    0.0000 C   0  0  0  0  0  0  0  0  0  0  0  0
    2.5559   -4.9820    0.0000 C   0  0  0  0  0  0  0  0  0  0  0  0
    1.7309   -4.9820    0.0000 C   0  0  0  0  0  0  0  0  0  0  0  0
    1.4760   -4.1974    0.0000 N   0  0  0  0  0  0  0  0  0  0  0  0
    3.0408   -5.6495    0.0000 C   0  0  0  0  0  0  0  0  0  0  0  0
    3.8613   -5.5632    0.0000 N   0  0  0  0  0  0  0  0  0  0  0  0
    4.3462   -6.2307    0.0000 C   0  0  0  0  0  0  0  0  0  0  0  0
    5.1667   -6.1445    0.0000 N   0  0  0  0  0  0  0  0  0  0  0  0
    5.6516   -6.8119    0.0000 C   0  0  0  0  0  0  0  0  0  0  0  0
    6.4721   -6.7257    0.0000 C   0  0  0  0  0  0  0  0  0  0  0  0
    6.9570   -7.3931    0.0000 C   0  0  0  0  0  0  0  0  0  0  0  0
    6.6215   -8.1468    0.0000 C   0  0  0  0  0  0  0  0  0  0  0  0
    5.8010   -8.2330    0.0000 C   0  0  0  0  0  0  0  0  0  0  0  0
    5.3161   -7.5656    0.0000 C   0  0  0  0  0  0  0  0  0  0  0  0
    4.0107   -6.9844    0.0000 N   0  0  0  0  0  0  0  0  0  0  0  0
    3.1902   -7.0706    0.0000 C   0  0  0  0  0  0  0  0  0  0  0  0
    2.7053   -6.4032    0.0000 C   0  0  0  0  0  0  0  0  0  0  0  0
    1.8848   -6.4894    0.0000 C   0  0  0  0  0  0  0  0  0  0  0  0
  1  2  1  0  0  0  0
  2  3  4  0  0  0  0
  3  4  4  0  0  0  0
  4  5  4  0  0  0  0
  5  6  4  0  0  0  0
  6  7  4  0  0  0  0
  2  7  4  0  0  0  0
  8  6  1  0  0  0  0
  8  9  1  0  0  0  0
  9 10  1  0  0  0  0
  8 11  1  1  0  0  0
 11 12  1  0  0  0  0
 12 13  2  0  0  0  0
 12 14  1  0  0  0  0
 14 15  4  0  0  0  0
 15 16  4  0  0  0  0
 16 17  4  0  0  0  0
 17 18  4  0  0  0  0
 14 18  4  0  0  0  0
 16 19  1  0  0  0  0
 19 20  4  0  0  0  0
 20 21  4  0  0  0  0
 21 22  1  0  0  0  0
 22 23  1  0  0  0  0
 23 24  4  0  0  0  0
 24 25  4  0  0  0  0
 25 26  4  0  0  0  0
 26 27  4  0  0  0  0
 27 28  4  0  0  0  0
 23 28  4  0  0  0  0
 21 29  4  0  0  0  0
 29 30  4  0  0  0  0
 30 31  4  0  0  0  0
 19 31  4  0  0  0  0
 31 32  1  0  0  0  0
M  STY  1   1 DAT
M  SAL   1  1  18
M  SDT   1 MRV_IMPLICIT_H                                        
M  SDD   1     0.5304   -0.4125    DR    ALL  0       0  
M  SED   1 IMPL_H1
M  END
> <BindingDB_ID/CHEMBL_ID>
35651

> <pKi>
7.2

> <Target Name>
Cyclin-A2/Cyclin-dependent kinase 2

> <Target Source Organism>
Homo sapiens

> <Target Uniprot>
P24941

> <Article DOI>
10.1021/jm900630q

$$$$

  Mrv2316 09262419122D          

 34 37  0  0  1  0            999 V2000
   -0.1067    2.4134    0.0000 C   0  0  0  0  0  0  0  0  0  0  0  0
    0.6078    2.0009    0.0000 C   0  0  0  0  0  0  0  0  0  0  0  0
    1.3222    2.4134    0.0000 C   0  0  0  0  0  0  0  0  0  0  0  0
    2.0367    2.0009    0.0000 C   0  0  0  0  0  0  0  0  0  0  0  0
    2.0367    1.1759    0.0000 C   0  0  0  0  0  0  0  0  0  0  0  0
    1.3222    0.7634    0.0000 C   0  0  0  0  0  0  0  0  0  0  0  0
    1.3222   -0.0616    0.0000 N   0  0  0  0  0  0  0  0  0  0  0  0
    2.0367   -0.4741    0.0000 C   0  0  0  0  0  0  0  0  0  0  0  0
    2.7512   -0.0616    0.0000 N   0  0  0  0  0  0  0  0  0  0  0  0
    3.4656   -0.4741    0.0000 C   0  0  0  0  0  0  0  0  0  0  0  0
    3.4656   -1.2991    0.0000 C   0  0  0  0  0  0  0  0  0  0  0  0
    4.1801   -1.7116    0.0000 C   0  0  0  0  0  0  0  0  0  0  0  0
    2.7512   -1.7116    0.0000 C   0  0  0  0  0  0  0  0  0  0  0  0
    2.0367   -1.2991    0.0000 N   0  0  0  0  0  0  0  0  0  0  0  0
    2.7512   -2.5366    0.0000 C   0  0  0  0  0  0  0  0  0  0  0  0
    3.4186   -3.0215    0.0000 C   0  0  0  0  0  0  0  0  0  0  0  0
    3.1637   -3.8062    0.0000 N   0  0  0  0  0  0  0  0  0  0  0  0
    2.3387   -3.8062    0.0000 C   0  0  0  0  0  0  0  0  0  0  0  0
    2.0837   -3.0215    0.0000 C   0  0  0  0  0  0  0  0  0  0  0  0
    1.8538   -4.4736    0.0000 C   0  0  0  0  0  0  0  0  0  0  0  0
    2.1893   -5.2273    0.0000 O   0  0  0  0  0  0  0  0  0  0  0  0
    1.0333   -4.3874    0.0000 N   0  0  0  0  0  0  0  0  0  0  0  0
    0.5484   -5.0548    0.0000 C   0  0  2  0  0  0  0  0  0  0  0  0
    0.8839   -5.8085    0.0000 C   0  0  0  0  0  0  0  0  0  0  0  0
    0.3990   -6.4759    0.0000 O   0  0  0  0  0  0  0  0  0  0  0  0
   -0.2721   -4.9686    0.0000 C   0  0  0  0  0  0  0  0  0  0  0  0
   -0.7571   -5.6360    0.0000 C   0  0  0  0  0  0  0  0  0  0  0  0
   -1.5775   -5.5498    0.0000 C   0  0  0  0  0  0  0  0  0  0  0  0
   -1.9131   -4.7961    0.0000 C   0  0  0  0  0  0  0  0  0  0  0  0
   -1.4282   -4.1286    0.0000 C   0  0  0  0  0  0  0  0  0  0  0  0
   -1.7637   -3.3750    0.0000 Cl  0  0  0  0  0  0  0  0  0  0  0  0
   -0.6077   -4.2149    0.0000 C   0  0  0  0  0  0  0  0  0  0  0  0
    0.6078    1.1759    0.0000 C   0  0  0  0  0  0  0  0  0  0  0  0
   -0.1067    0.7634    0.0000 C   0  0  0  0  0  0  0  0  0  0  0  0
  1  2  1  0  0  0  0
  2  3  4  0  0  0  0
  3  4  4  0  0  0  0
  4  5  4  0  0  0  0
  5  6  4  0  0  0  0
  6  7  1  0  0  0  0
  7  8  1  0  0  0  0
  8  9  4  0  0  0  0
  9 10  4  0  0  0  0
 10 11  4  0  0  0  0
 11 12  1  0  0  0  0
 11 13  4  0  0  0  0
 13 14  4  0  0  0  0
  8 14  4  0  0  0  0
 13 15  1  0  0  0  0
 15 16  4  0  0  0  0
 16 17  4  0  0  0  0
 17 18  4  0  0  0  0
 18 19  4  0  0  0  0
 15 19  4  0  0  0  0
 18 20  1  0  0  0  0
 20 21  2  0  0  0  0
 20 22  1  0  0  0  0
 23 22  1  6  0  0  0
 23 24  1  0  0  0  0
 24 25  1  0  0  0  0
 23 26  1  0  0  0  0
 26 27  4  0  0  0  0
 27 28  4  0  0  0  0
 28 29  4  0  0  0  0
 29 30  4  0  0  0  0
 30 31  1  0  0  0  0
 30 32  4  0  0  0  0
 26 32  4  0  0  0  0
  6 33  4  0  0  0  0
  2 33  4  0  0  0  0
 33 34  1  0  0  0  0
M  STY  1   1 DAT
M  SAL   1  1  17
M  SDT   1 MRV_IMPLICIT_H                                        
M  SDD   1     0.5304   -0.4125    DR    ALL  0       0  
M  SED   1 IMPL_H1
M  END
> <BindingDB_ID/CHEMBL_ID>
35654

> <pKi>
7.4

> <Target Name>
Cyclin-A2/Cyclin-dependent kinase 2

> <Target Source Organism>
Homo sapiens

> <Target Uniprot>
P24941

> <Article DOI>
10.1021/jm900630q

$$$$

  Mrv2316 09262419122D          

 34 37  0  0  1  0            999 V2000
    1.3222   -1.7116    0.0000 C   0  0  0  0  0  0  0  0  0  0  0  0
    2.0367   -1.2991    0.0000 C   0  0  0  0  0  0  0  0  0  0  0  0
    2.0367   -0.4741    0.0000 C   0  0  0  0  0  0  0  0  0  0  0  0
    2.7512   -0.0616    0.0000 N   0  0  0  0  0  0  0  0  0  0  0  0
    3.4656   -0.4741    0.0000 C   0  0  0  0  0  0  0  0  0  0  0  0
    4.1801   -0.0616    0.0000 N   0  0  0  0  0  0  0  0  0  0  0  0
    4.1801    0.7634    0.0000 C   0  0  0  0  0  0  0  0  0  0  0  0
    3.4656    1.1759    0.0000 C   0  0  0  0  0  0  0  0  0  0  0  0
    3.4656    2.0009    0.0000 C   0  0  0  0  0  0  0  0  0  0  0  0
    4.1801    2.4134    0.0000 C   0  0  0  0  0  0  0  0  0  0  0  0
    4.8946    2.0009    0.0000 C   0  0  0  0  0  0  0  0  0  0  0  0
    5.6091    2.4134    0.0000 F   0  0  0  0  0  0  0  0  0  0  0  0
    4.8946    1.1759    0.0000 C   0  0  0  0  0  0  0  0  0  0  0  0
    5.6091    0.7634    0.0000 C   0  0  0  0  0  0  0  0  0  0  0  0
    3.4656   -1.2991    0.0000 N   0  0  0  0  0  0  0  0  0  0  0  0
    2.7512   -1.7116    0.0000 C   0  0  0  0  0  0  0  0  0  0  0  0
    2.7512   -2.5366    0.0000 C   0  0  0  0  0  0  0  0  0  0  0  0
    3.4186   -3.0215    0.0000 C   0  0  0  0  0  0  0  0  0  0  0  0
    3.1637   -3.8062    0.0000 N   0  0  0  0  0  0  0  0  0  0  0  0
    2.3387   -3.8062    0.0000 C   0  0  0  0  0  0  0  0  0  0  0  0
    2.0837   -3.0215    0.0000 C   0  0  0  0  0  0  0  0  0  0  0  0
    1.8538   -4.4736    0.0000 C   0  0  0  0  0  0  0  0  0  0  0  0
    2.1893   -5.2273    0.0000 O   0  0  0  0  0  0  0  0  0  0  0  0
    1.0333   -4.3874    0.0000 N   0  0  0  0  0  0  0  0  0  0  0  0
    0.5484   -5.0548    0.0000 C   0  0  2  0  0  0  0  0  0  0  0  0
    0.8839   -5.8085    0.0000 C   0  0  0  0  0  0  0  0  0  0  0  0
    0.3990   -6.4759    0.0000 O   0  0  0  0  0  0  0  0  0  0  0  0
   -0.2721   -4.9686    0.0000 C   0  0  0  0  0  0  0  0  0  0  0  0
   -0.7571   -5.6360    0.0000 C   0  0  0  0  0  0  0  0  0  0  0  0
   -1.5775   -5.5498    0.0000 C   0  0  0  0  0  0  0  0  0  0  0  0
   -1.9131   -4.7961    0.0000 C   0  0  0  0  0  0  0  0  0  0  0  0
   -1.4282   -4.1286    0.0000 C   0  0  0  0  0  0  0  0  0  0  0  0
   -1.7637   -3.3750    0.0000 Cl  0  0  0  0  0  0  0  0  0  0  0  0
   -0.6077   -4.2149    0.0000 C   0  0  0  0  0  0  0  0  0  0  0  0
  1  2  1  0  0  0  0
  2  3  4  0  0  0  0
  3  4  4  0  0  0  0
  4  5  4  0  0  0  0
  5  6  1  0  0  0  0
  6  7  1  0  0  0  0
  7  8  4  0  0  0  0
  8  9  4  0  0  0  0
  9 10  4  0  0  0  0
 10 11  4  0  0  0  0
 11 12  1  0  0  0  0
 11 13  4  0  0  0  0
  7 13  4  0  0  0  0
 13 14  1  0  0  0  0
  5 15  4  0  0  0  0
 15 16  4  0  0  0  0
  2 16  4  0  0  0  0
 16 17  1  0  0  0  0
 17 18  4  0  0  0  0
 18 19  4  0  0  0  0
 19 20  4  0  0  0  0
 20 21  4  0  0  0  0
 17 21  4  0  0  0  0
 20 22  1  0  0  0  0
 22 23  2  0  0  0  0
 22 24  1  0  0  0  0
 25 24  1  6  0  0  0
 25 26  1  0  0  0  0
 26 27  1  0  0  0  0
 25 28  1  0  0  0  0
 28 29  4  0  0  0  0
 29 30  4  0  0  0  0
 30 31  4  0  0  0  0
 31 32  4  0  0  0  0
 32 33  1  0  0  0  0
 32 34  4  0  0  0  0
 28 34  4  0  0  0  0
M  STY  1   1 DAT
M  SAL   1  1  19
M  SDT   1 MRV_IMPLICIT_H                                        
M  SDD   1     0.5304   -0.4125    DR    ALL  0       0  
M  SED   1 IMPL_H1
M  END
> <BindingDB_ID/CHEMBL_ID>
35655

> <pKi>
6.8

> <Target Name>
Cyclin-A2/Cyclin-dependent kinase 2

> <Target Source Organism>
Homo sapiens

> <Target Uniprot>
P24941

> <Article DOI>
10.1021/jm900630q

$$$$

  Mrv2316 09262419122D          

 34 37  0  0  1  0            999 V2000
   -0.1067    0.7634    0.0000 C   0  0  0  0  0  0  0  0  0  0  0  0
    0.6078    1.1759    0.0000 C   0  0  0  0  0  0  0  0  0  0  0  0
    0.6078    2.0009    0.0000 C   0  0  0  0  0  0  0  0  0  0  0  0
    1.3222    2.4134    0.0000 C   0  0  0  0  0  0  0  0  0  0  0  0
    1.3222    3.2384    0.0000 Cl  0  0  0  0  0  0  0  0  0  0  0  0
    2.0367    2.0009    0.0000 C   0  0  0  0  0  0  0  0  0  0  0  0
    2.0367    1.1759    0.0000 C   0  0  0  0  0  0  0  0  0  0  0  0
    1.3222    0.7634    0.0000 C   0  0  0  0  0  0  0  0  0  0  0  0
    1.3222   -0.0616    0.0000 N   0  0  0  0  0  0  0  0  0  0  0  0
    2.0367   -0.4741    0.0000 C   0  0  0  0  0  0  0  0  0  0  0  0
    2.7512   -0.0616    0.0000 N   0  0  0  0  0  0  0  0  0  0  0  0
    3.4656   -0.4741    0.0000 C   0  0  0  0  0  0  0  0  0  0  0  0
    3.4656   -1.2991    0.0000 C   0  0  0  0  0  0  0  0  0  0  0  0
    4.1801   -1.7116    0.0000 C   0  0  0  0  0  0  0  0  0  0  0  0
    2.7512   -1.7116    0.0000 C   0  0  0  0  0  0  0  0  0  0  0  0
    2.0367   -1.2991    0.0000 N   0  0  0  0  0  0  0  0  0  0  0  0
    2.7512   -2.5366    0.0000 C   0  0  0  0  0  0  0  0  0  0  0  0
    3.4186   -3.0215    0.0000 C   0  0  0  0  0  0  0  0  0  0  0  0
    3.1637   -3.8062    0.0000 N   0  0  0  0  0  0  0  0  0  0  0  0
    2.3387   -3.8062    0.0000 C   0  0  0  0  0  0  0  0  0  0  0  0
    2.0837   -3.0215    0.0000 C   0  0  0  0  0  0  0  0  0  0  0  0
    1.8538   -4.4736    0.0000 C   0  0  0  0  0  0  0  0  0  0  0  0
    2.1893   -5.2273    0.0000 O   0  0  0  0  0  0  0  0  0  0  0  0
    1.0333   -4.3874    0.0000 N   0  0  0  0  0  0  0  0  0  0  0  0
    0.5484   -5.0548    0.0000 C   0  0  2  0  0  0  0  0  0  0  0  0
    0.8839   -5.8085    0.0000 C   0  0  0  0  0  0  0  0  0  0  0  0
    0.3990   -6.4759    0.0000 O   0  0  0  0  0  0  0  0  0  0  0  0
   -0.2721   -4.9686    0.0000 C   0  0  0  0  0  0  0  0  0  0  0  0
   -0.7571   -5.6360    0.0000 C   0  0  0  0  0  0  0  0  0  0  0  0
   -1.5775   -5.5498    0.0000 C   0  0  0  0  0  0  0  0  0  0  0  0
   -1.9131   -4.7961    0.0000 C   0  0  0  0  0  0  0  0  0  0  0  0
   -1.4282   -4.1286    0.0000 C   0  0  0  0  0  0  0  0  0  0  0  0
   -1.7637   -3.3750    0.0000 Cl  0  0  0  0  0  0  0  0  0  0  0  0
   -0.6077   -4.2149    0.0000 C   0  0  0  0  0  0  0  0  0  0  0  0
  1  2  1  0  0  0  0
  2  3  4  0  0  0  0
  3  4  4  0  0  0  0
  4  5  1  0  0  0  0
  4  6  4  0  0  0  0
  6  7  4  0  0  0  0
  7  8  4  0  0  0  0
  2  8  4  0  0  0  0
  8  9  1  0  0  0  0
  9 10  1  0  0  0  0
 10 11  4  0  0  0  0
 11 12  4  0  0  0  0
 12 13  4  0  0  0  0
 13 14  1  0  0  0  0
 13 15  4  0  0  0  0
 15 16  4  0  0  0  0
 10 16  4  0  0  0  0
 15 17  1  0  0  0  0
 17 18  4  0  0  0  0
 18 19  4  0  0  0  0
 19 20  4  0  0  0  0
 20 21  4  0  0  0  0
 17 21  4  0  0  0  0
 20 22  1  0  0  0  0
 22 23  2  0  0  0  0
 22 24  1  0  0  0  0
 25 24  1  6  0  0  0
 25 26  1  0  0  0  0
 26 27  1  0  0  0  0
 25 28  1  0  0  0  0
 28 29  4  0  0  0  0
 29 30  4  0  0  0  0
 30 31  4  0  0  0  0
 31 32  4  0  0  0  0
 32 33  1  0  0  0  0
 32 34  4  0  0  0  0
 28 34  4  0  0  0  0
M  STY  1   1 DAT
M  SAL   1  1  19
M  SDT   1 MRV_IMPLICIT_H                                        
M  SDD   1     0.5304   -0.4125    DR    ALL  0       0  
M  SED   1 IMPL_H1
M  END
> <BindingDB_ID/CHEMBL_ID>
35656

> <pKi>
7.1

> <Target Name>
Cyclin-A2/Cyclin-dependent kinase 2

> <Target Source Organism>
Homo sapiens

> <Target Uniprot>
P24941

> <Article DOI>
10.1021/jm900630q

$$$$

  Mrv2316 09262419122D          

 34 37  0  0  1  0            999 V2000
    1.3222   -1.7116    0.0000 C   0  0  0  0  0  0  0  0  0  0  0  0
    2.0367   -1.2991    0.0000 C   0  0  0  0  0  0  0  0  0  0  0  0
    2.0367   -0.4741    0.0000 C   0  0  0  0  0  0  0  0  0  0  0  0
    2.7512   -0.0616    0.0000 N   0  0  0  0  0  0  0  0  0  0  0  0
    3.4656   -0.4741    0.0000 C   0  0  0  0  0  0  0  0  0  0  0  0
    4.1801   -0.0616    0.0000 N   0  0  0  0  0  0  0  0  0  0  0  0
    4.1801    0.7634    0.0000 C   0  0  0  0  0  0  0  0  0  0  0  0
    3.4656    1.1759    0.0000 C   0  0  0  0  0  0  0  0  0  0  0  0
    3.4656    2.0009    0.0000 C   0  0  0  0  0  0  0  0  0  0  0  0
    4.1801    2.4134    0.0000 C   0  0  0  0  0  0  0  0  0  0  0  0
    4.1801    3.2384    0.0000 F   0  0  0  0  0  0  0  0  0  0  0  0
    4.8946    2.0009    0.0000 C   0  0  0  0  0  0  0  0  0  0  0  0
    4.8946    1.1759    0.0000 C   0  0  0  0  0  0  0  0  0  0  0  0
    5.6091    0.7634    0.0000 Cl  0  0  0  0  0  0  0  0  0  0  0  0
    3.4656   -1.2991    0.0000 N   0  0  0  0  0  0  0  0  0  0  0  0
    2.7512   -1.7116    0.0000 C   0  0  0  0  0  0  0  0  0  0  0  0
    2.7512   -2.5366    0.0000 C   0  0  0  0  0  0  0  0  0  0  0  0
    3.4186   -3.0215    0.0000 C   0  0  0  0  0  0  0  0  0  0  0  0
    3.1637   -3.8062    0.0000 N   0  0  0  0  0  0  0  0  0  0  0  0
    2.3387   -3.8062    0.0000 C   0  0  0  0  0  0  0  0  0  0  0  0
    2.0837   -3.0215    0.0000 C   0  0  0  0  0  0  0  0  0  0  0  0
    1.8538   -4.4736    0.0000 C   0  0  0  0  0  0  0  0  0  0  0  0
    2.1893   -5.2273    0.0000 O   0  0  0  0  0  0  0  0  0  0  0  0
    1.0333   -4.3874    0.0000 N   0  0  0  0  0  0  0  0  0  0  0  0
    0.5484   -5.0548    0.0000 C   0  0  2  0  0  0  0  0  0  0  0  0
    0.8839   -5.8085    0.0000 C   0  0  0  0  0  0  0  0  0  0  0  0
    0.3990   -6.4759    0.0000 O   0  0  0  0  0  0  0  0  0  0  0  0
   -0.2721   -4.9686    0.0000 C   0  0  0  0  0  0  0  0  0  0  0  0
   -0.7571   -5.6360    0.0000 C   0  0  0  0  0  0  0  0  0  0  0  0
   -1.5775   -5.5498    0.0000 C   0  0  0  0  0  0  0  0  0  0  0  0
   -1.9131   -4.7961    0.0000 C   0  0  0  0  0  0  0  0  0  0  0  0
   -1.4282   -4.1286    0.0000 C   0  0  0  0  0  0  0  0  0  0  0  0
   -1.7637   -3.3750    0.0000 Cl  0  0  0  0  0  0  0  0  0  0  0  0
   -0.6077   -4.2149    0.0000 C   0  0  0  0  0  0  0  0  0  0  0  0
  1  2  1  0  0  0  0
  2  3  4  0  0  0  0
  3  4  4  0  0  0  0
  4  5  4  0  0  0  0
  5  6  1  0  0  0  0
  6  7  1  0  0  0  0
  7  8  4  0  0  0  0
  8  9  4  0  0  0  0
  9 10  4  0  0  0  0
 10 11  1  0  0  0  0
 10 12  4  0  0  0  0
 12 13  4  0  0  0  0
  7 13  4  0  0  0  0
 13 14  1  0  0  0  0
  5 15  4  0  0  0  0
 15 16  4  0  0  0  0
  2 16  4  0  0  0  0
 16 17  1  0  0  0  0
 17 18  4  0  0  0  0
 18 19  4  0  0  0  0
 19 20  4  0  0  0  0
 20 21  4  0  0  0  0
 17 21  4  0  0  0  0
 20 22  1  0  0  0  0
 22 23  2  0  0  0  0
 22 24  1  0  0  0  0
 25 24  1  6  0  0  0
 25 26  1  0  0  0  0
 26 27  1  0  0  0  0
 25 28  1  0  0  0  0
 28 29  4  0  0  0  0
 29 30  4  0  0  0  0
 30 31  4  0  0  0  0
 31 32  4  0  0  0  0
 32 33  1  0  0  0  0
 32 34  4  0  0  0  0
 28 34  4  0  0  0  0
M  STY  1   1 DAT
M  SAL   1  1  19
M  SDT   1 MRV_IMPLICIT_H                                        
M  SDD   1     0.5304   -0.4125    DR    ALL  0       0  
M  SED   1 IMPL_H1
M  END
> <BindingDB_ID/CHEMBL_ID>
35657

> <pKi>
6.1

> <Target Name>
Cyclin-A2/Cyclin-dependent kinase 2

> <Target Source Organism>
Homo sapiens

> <Target Uniprot>
P24941

> <Article DOI>
10.1021/jm900630q

$$$$

  Mrv2316 09262419122D          

 34 37  0  0  1  0            999 V2000
    1.3222   -1.7116    0.0000 C   0  0  0  0  0  0  0  0  0  0  0  0
    2.0367   -1.2991    0.0000 C   0  0  0  0  0  0  0  0  0  0  0  0
    2.0367   -0.4741    0.0000 C   0  0  0  0  0  0  0  0  0  0  0  0
    2.7512   -0.0616    0.0000 N   0  0  0  0  0  0  0  0  0  0  0  0
    3.4656   -0.4741    0.0000 C   0  0  0  0  0  0  0  0  0  0  0  0
    4.1801   -0.0616    0.0000 N   0  0  0  0  0  0  0  0  0  0  0  0
    4.1801    0.7634    0.0000 C   0  0  0  0  0  0  0  0  0  0  0  0
    3.4656    1.1759    0.0000 C   0  0  0  0  0  0  0  0  0  0  0  0
    3.4656    2.0009    0.0000 C   0  0  0  0  0  0  0  0  0  0  0  0
    4.1801    2.4134    0.0000 C   0  0  0  0  0  0  0  0  0  0  0  0
    4.1801    3.2384    0.0000 Cl  0  0  0  0  0  0  0  0  0  0  0  0
    4.8946    2.0009    0.0000 C   0  0  0  0  0  0  0  0  0  0  0  0
    4.8946    1.1759    0.0000 C   0  0  0  0  0  0  0  0  0  0  0  0
    5.6091    0.7634    0.0000 F   0  0  0  0  0  0  0  0  0  0  0  0
    3.4656   -1.2991    0.0000 N   0  0  0  0  0  0  0  0  0  0  0  0
    2.7512   -1.7116    0.0000 C   0  0  0  0  0  0  0  0  0  0  0  0
    2.7512   -2.5366    0.0000 C   0  0  0  0  0  0  0  0  0  0  0  0
    3.4186   -3.0215    0.0000 C   0  0  0  0  0  0  0  0  0  0  0  0
    3.1637   -3.8062    0.0000 N   0  0  0  0  0  0  0  0  0  0  0  0
    2.3387   -3.8062    0.0000 C   0  0  0  0  0  0  0  0  0  0  0  0
    2.0837   -3.0215    0.0000 C   0  0  0  0  0  0  0  0  0  0  0  0
    1.8538   -4.4736    0.0000 C   0  0  0  0  0  0  0  0  0  0  0  0
    2.1893   -5.2273    0.0000 O   0  0  0  0  0  0  0  0  0  0  0  0
    1.0333   -4.3874    0.0000 N   0  0  0  0  0  0  0  0  0  0  0  0
    0.5484   -5.0548    0.0000 C   0  0  2  0  0  0  0  0  0  0  0  0
    0.8839   -5.8085    0.0000 C   0  0  0  0  0  0  0  0  0  0  0  0
    0.3990   -6.4759    0.0000 O   0  0  0  0  0  0  0  0  0  0  0  0
   -0.2721   -4.9686    0.0000 C   0  0  0  0  0  0  0  0  0  0  0  0
   -0.7571   -5.6360    0.0000 C   0  0  0  0  0  0  0  0  0  0  0  0
   -1.5775   -5.5498    0.0000 C   0  0  0  0  0  0  0  0  0  0  0  0
   -1.9131   -4.7961    0.0000 C   0  0  0  0  0  0  0  0  0  0  0  0
   -1.4282   -4.1286    0.0000 C   0  0  0  0  0  0  0  0  0  0  0  0
   -1.7637   -3.3750    0.0000 Cl  0  0  0  0  0  0  0  0  0  0  0  0
   -0.6077   -4.2149    0.0000 C   0  0  0  0  0  0  0  0  0  0  0  0
  1  2  1  0  0  0  0
  2  3  4  0  0  0  0
  3  4  4  0  0  0  0
  4  5  4  0  0  0  0
  5  6  1  0  0  0  0
  6  7  1  0  0  0  0
  7  8  4  0  0  0  0
  8  9  4  0  0  0  0
  9 10  4  0  0  0  0
 10 11  1  0  0  0  0
 10 12  4  0  0  0  0
 12 13  4  0  0  0  0
  7 13  4  0  0  0  0
 13 14  1  0  0  0  0
  5 15  4  0  0  0  0
 15 16  4  0  0  0  0
  2 16  4  0  0  0  0
 16 17  1  0  0  0  0
 17 18  4  0  0  0  0
 18 19  4  0  0  0  0
 19 20  4  0  0  0  0
 20 21  4  0  0  0  0
 17 21  4  0  0  0  0
 20 22  1  0  0  0  0
 22 23  2  0  0  0  0
 22 24  1  0  0  0  0
 25 24  1  6  0  0  0
 25 26  1  0  0  0  0
 26 27  1  0  0  0  0
 25 28  1  0  0  0  0
 28 29  4  0  0  0  0
 29 30  4  0  0  0  0
 30 31  4  0  0  0  0
 31 32  4  0  0  0  0
 32 33  1  0  0  0  0
 32 34  4  0  0  0  0
 28 34  4  0  0  0  0
M  STY  1   1 DAT
M  SAL   1  1  19
M  SDT   1 MRV_IMPLICIT_H                                        
M  SDD   1     0.5304   -0.4125    DR    ALL  0       0  
M  SED   1 IMPL_H1
M  END
> <BindingDB_ID/CHEMBL_ID>
35658

> <pKi>
6.5

> <Target Name>
Cyclin-A2/Cyclin-dependent kinase 2

> <Target Source Organism>
Homo sapiens

> <Target Uniprot>
P24941

> <Article DOI>
10.1021/jm900630q

$$$$

  Mrv2316 09262419122D          

 34 37  0  0  1  0            999 V2000
   -5.6091    2.4134    0.0000 C   0  0  0  0  0  0  0  0  0  0  0  0
   -4.8946    2.0009    0.0000 C   0  0  0  0  0  0  0  0  0  0  0  0
   -4.1801    2.4134    0.0000 C   0  0  0  0  0  0  0  0  0  0  0  0
   -4.1801    3.2384    0.0000 C   0  0  0  0  0  0  0  0  0  0  0  0
   -3.4656    3.6509    0.0000 C   0  0  0  0  0  0  0  0  0  0  0  0
   -2.7512    3.2384    0.0000 C   0  0  0  0  0  0  0  0  0  0  0  0
   -2.7512    2.4134    0.0000 C   0  0  0  0  0  0  0  0  0  0  0  0
   -3.4656    2.0009    0.0000 C   0  0  0  0  0  0  0  0  0  0  0  0
   -3.4656    1.1759    0.0000 N   0  0  0  0  0  0  0  0  0  0  0  0
   -2.7512    0.7634    0.0000 C   0  0  0  0  0  0  0  0  0  0  0  0
   -2.0367    1.1759    0.0000 N   0  0  0  0  0  0  0  0  0  0  0  0
   -1.3222    0.7634    0.0000 C   0  0  0  0  0  0  0  0  0  0  0  0
   -1.3222   -0.0616    0.0000 C   0  0  0  0  0  0  0  0  0  0  0  0
   -0.6078   -0.4741    0.0000 C   0  0  0  0  0  0  0  0  0  0  0  0
   -2.0367   -0.4741    0.0000 C   0  0  0  0  0  0  0  0  0  0  0  0
   -2.7512   -0.0616    0.0000 N   0  0  0  0  0  0  0  0  0  0  0  0
   -2.0367   -1.2991    0.0000 C   0  0  0  0  0  0  0  0  0  0  0  0
   -1.3693   -1.7840    0.0000 C   0  0  0  0  0  0  0  0  0  0  0  0
   -1.6242   -2.5687    0.0000 N   0  0  0  0  0  0  0  0  0  0  0  0
   -2.4492   -2.5687    0.0000 C   0  0  0  0  0  0  0  0  0  0  0  0
   -2.7041   -1.7840    0.0000 C   0  0  0  0  0  0  0  0  0  0  0  0
   -2.9341   -3.2361    0.0000 C   0  0  0  0  0  0  0  0  0  0  0  0
   -2.5986   -3.9898    0.0000 O   0  0  0  0  0  0  0  0  0  0  0  0
   -3.7546   -3.1499    0.0000 N   0  0  0  0  0  0  0  0  0  0  0  0
   -4.2395   -3.8173    0.0000 C   0  0  2  0  0  0  0  0  0  0  0  0
   -5.0600   -3.7311    0.0000 C   0  0  0  0  0  0  0  0  0  0  0  0
   -5.3956   -2.9774    0.0000 O   0  0  0  0  0  0  0  0  0  0  0  0
   -3.9040   -4.5710    0.0000 C   0  0  0  0  0  0  0  0  0  0  0  0
   -3.0835   -4.6572    0.0000 C   0  0  0  0  0  0  0  0  0  0  0  0
   -2.7479   -5.4109    0.0000 C   0  0  0  0  0  0  0  0  0  0  0  0
   -3.2329   -6.0783    0.0000 C   0  0  0  0  0  0  0  0  0  0  0  0
   -4.0533   -5.9921    0.0000 C   0  0  0  0  0  0  0  0  0  0  0  0
   -4.5383   -6.6595    0.0000 Cl  0  0  0  0  0  0  0  0  0  0  0  0
   -4.3889   -5.2384    0.0000 C   0  0  0  0  0  0  0  0  0  0  0  0
  1  2  1  0  0  0  0
  2  3  1  0  0  0  0
  3  4  4  0  0  0  0
  4  5  4  0  0  0  0
  5  6  4  0  0  0  0
  6  7  4  0  0  0  0
  7  8  4  0  0  0  0
  3  8  4  0  0  0  0
  8  9  1  0  0  0  0
  9 10  1  0  0  0  0
 10 11  4  0  0  0  0
 11 12  4  0  0  0  0
 12 13  4  0  0  0  0
 13 14  1  0  0  0  0
 13 15  4  0  0  0  0
 15 16  4  0  0  0  0
 10 16  4  0  0  0  0
 15 17  1  0  0  0  0
 17 18  4  0  0  0  0
 18 19  4  0  0  0  0
 19 20  4  0  0  0  0
 20 21  4  0  0  0  0
 17 21  4  0  0  0  0
 20 22  1  0  0  0  0
 22 23  2  0  0  0  0
 22 24  1  0  0  0  0
 25 24  1  1  0  0  0
 25 26  1  0  0  0  0
 26 27  1  0  0  0  0
 25 28  1  0  0  0  0
 28 29  4  0  0  0  0
 29 30  4  0  0  0  0
 30 31  4  0  0  0  0
 31 32  4  0  0  0  0
 32 33  1  0  0  0  0
 32 34  4  0  0  0  0
 28 34  4  0  0  0  0
M  STY  1   1 DAT
M  SAL   1  1  19
M  SDT   1 MRV_IMPLICIT_H                                        
M  SDD   1     0.5304   -0.4125    DR    ALL  0       0  
M  SED   1 IMPL_H1
M  END
> <BindingDB_ID/CHEMBL_ID>
35659

> <pKi>
6.4

> <Target Name>
Cyclin-A2/Cyclin-dependent kinase 2

> <Target Source Organism>
Homo sapiens

> <Target Uniprot>
P24941

> <Article DOI>
10.1021/jm900630q

$$$$

  Mrv2316 09262419122D          

 35 39  0  0  1  0            999 V2000
    6.1368    3.7125    0.0000 C   0  0  0  0  0  0  0  0  0  0  0  0
    5.4223    3.3000    0.0000 C   0  0  0  0  0  0  0  0  0  0  0  0
    5.4223    2.4750    0.0000 C   0  0  0  0  0  0  0  0  0  0  0  0
    4.7079    2.0625    0.0000 N   0  0  0  0  0  0  0  0  0  0  0  0
    3.9934    2.4750    0.0000 C   0  0  0  0  0  0  0  0  0  0  0  0
    3.2789    2.0625    0.0000 N   0  0  0  0  0  0  0  0  0  0  0  0
    3.2789    1.2375    0.0000 C   0  0  0  0  0  0  0  0  0  0  0  0
    3.9934    0.8250    0.0000 C   0  0  0  0  0  0  0  0  0  0  0  0
    3.9934    0.0000    0.0000 C   0  0  0  0  0  0  0  0  0  0  0  0
    3.2789   -0.4125    0.0000 C   0  0  0  0  0  0  0  0  0  0  0  0
    2.5645    0.0000    0.0000 C   0  0  0  0  0  0  0  0  0  0  0  0
    1.7798   -0.2549    0.0000 C   0  0  0  0  0  0  0  0  0  0  0  0
    1.2949    0.4125    0.0000 C   0  0  0  0  0  0  0  0  0  0  0  0
    1.7798    1.0799    0.0000 C   0  0  0  0  0  0  0  0  0  0  0  0
    2.5645    0.8250    0.0000 C   0  0  0  0  0  0  0  0  0  0  0  0
    3.9934    3.3000    0.0000 N   0  0  0  0  0  0  0  0  0  0  0  0
    4.7079    3.7125    0.0000 C   0  0  0  0  0  0  0  0  0  0  0  0
    4.7079    4.5375    0.0000 C   0  0  0  0  0  0  0  0  0  0  0  0
    4.0404    5.0224    0.0000 C   0  0  0  0  0  0  0  0  0  0  0  0
    4.2954    5.8070    0.0000 N   0  0  0  0  0  0  0  0  0  0  0  0
    5.1204    5.8070    0.0000 C   0  0  0  0  0  0  0  0  0  0  0  0
    5.3753    5.0224    0.0000 C   0  0  0  0  0  0  0  0  0  0  0  0
    5.6053    6.4745    0.0000 C   0  0  0  0  0  0  0  0  0  0  0  0
    5.2697    7.2282    0.0000 O   0  0  0  0  0  0  0  0  0  0  0  0
    6.4258    6.3882    0.0000 N   0  0  0  0  0  0  0  0  0  0  0  0
    6.9107    7.0557    0.0000 C   0  0  2  0  0  0  0  0  0  0  0  0
    6.5751    7.8094    0.0000 C   0  0  0  0  0  0  0  0  0  0  0  0
    7.0601    8.4768    0.0000 O   0  0  0  0  0  0  0  0  0  0  0  0
    7.7312    6.9695    0.0000 C   0  0  0  0  0  0  0  0  0  0  0  0
    8.2161    7.6369    0.0000 C   0  0  0  0  0  0  0  0  0  0  0  0
    9.0366    7.5507    0.0000 C   0  0  0  0  0  0  0  0  0  0  0  0
    9.3721    6.7970    0.0000 C   0  0  0  0  0  0  0  0  0  0  0  0
    8.8872    6.1295    0.0000 C   0  0  0  0  0  0  0  0  0  0  0  0
    9.2228    5.3759    0.0000 Cl  0  0  0  0  0  0  0  0  0  0  0  0
    8.0667    6.2158    0.0000 C   0  0  0  0  0  0  0  0  0  0  0  0
  1  2  1  0  0  0  0
  2  3  4  0  0  0  0
  3  4  4  0  0  0  0
  4  5  4  0  0  0  0
  5  6  1  0  0  0  0
  6  7  1  0  0  0  0
  7  8  4  0  0  0  0
  8  9  4  0  0  0  0
  9 10  4  0  0  0  0
 10 11  4  0  0  0  0
 11 12  1  0  0  0  0
 12 13  1  0  0  0  0
 13 14  1  0  0  0  0
 14 15  1  0  0  0  0
  7 15  4  0  0  0  0
 11 15  4  0  0  0  0
  5 16  4  0  0  0  0
 16 17  4  0  0  0  0
  2 17  4  0  0  0  0
 17 18  1  0  0  0  0
 18 19  4  0  0  0  0
 19 20  4  0  0  0  0
 20 21  4  0  0  0  0
 21 22  4  0  0  0  0
 18 22  4  0  0  0  0
 21 23  1  0  0  0  0
 23 24  2  0  0  0  0
 23 25  1  0  0  0  0
 26 25  1  6  0  0  0
 26 27  1  0  0  0  0
 27 28  1  0  0  0  0
 26 29  1  0  0  0  0
 29 30  4  0  0  0  0
 30 31  4  0  0  0  0
 31 32  4  0  0  0  0
 32 33  4  0  0  0  0
 33 34  1  0  0  0  0
 33 35  4  0  0  0  0
 29 35  4  0  0  0  0
M  STY  1   1 DAT
M  SAL   1  1  20
M  SDT   1 MRV_IMPLICIT_H                                        
M  SDD   1     0.5304   -0.4125    DR    ALL  0       0  
M  SED   1 IMPL_H1
M  END
> <BindingDB_ID/CHEMBL_ID>
35660

> <pKi>
6.2

> <Target Name>
Cyclin-A2/Cyclin-dependent kinase 2

> <Target Source Organism>
Homo sapiens

> <Target Uniprot>
P24941

> <Article DOI>
10.1021/jm900630q

$$$$

  Mrv2316 09262419122D          

 36 40  0  0  1  0            999 V2000
   -1.4289   -4.1250    0.0000 C   0  0  0  0  0  0  0  0  0  0  0  0
   -0.7145   -3.7125    0.0000 C   0  0  0  0  0  0  0  0  0  0  0  0
   -0.7145   -2.8875    0.0000 C   0  0  0  0  0  0  0  0  0  0  0  0
    0.0000   -2.4750    0.0000 N   0  0  0  0  0  0  0  0  0  0  0  0
    0.7145   -2.8875    0.0000 C   0  0  0  0  0  0  0  0  0  0  0  0
    1.4289   -2.4750    0.0000 N   0  0  0  0  0  0  0  0  0  0  0  0
    1.4289   -1.6500    0.0000 C   0  0  0  0  0  0  0  0  0  0  0  0
    0.7145   -1.2375    0.0000 C   0  0  0  0  0  0  0  0  0  0  0  0
    0.7145   -0.4125    0.0000 C   0  0  0  0  0  0  0  0  0  0  0  0
    1.4289    0.0000    0.0000 C   0  0  0  0  0  0  0  0  0  0  0  0
    2.1434   -0.4125    0.0000 C   0  0  0  0  0  0  0  0  0  0  0  0
    2.8579    0.0000    0.0000 C   0  0  0  0  0  0  0  0  0  0  0  0
    3.5724   -0.4125    0.0000 C   0  0  0  0  0  0  0  0  0  0  0  0
    3.5724   -1.2375    0.0000 C   0  0  0  0  0  0  0  0  0  0  0  0
    2.8579   -1.6500    0.0000 C   0  0  0  0  0  0  0  0  0  0  0  0
    2.1434   -1.2375    0.0000 C   0  0  0  0  0  0  0  0  0  0  0  0
    0.7145   -3.7125    0.0000 N   0  0  0  0  0  0  0  0  0  0  0  0
    0.0000   -4.1250    0.0000 C   0  0  0  0  0  0  0  0  0  0  0  0
    0.0000   -4.9500    0.0000 C   0  0  0  0  0  0  0  0  0  0  0  0
    0.6674   -5.4349    0.0000 C   0  0  0  0  0  0  0  0  0  0  0  0
    0.4125   -6.2195    0.0000 N   0  0  0  0  0  0  0  0  0  0  0  0
   -0.4125   -6.2195    0.0000 C   0  0  0  0  0  0  0  0  0  0  0  0
   -0.6674   -5.4349    0.0000 C   0  0  0  0  0  0  0  0  0  0  0  0
   -0.8974   -6.8870    0.0000 C   0  0  0  0  0  0  0  0  0  0  0  0
   -0.5619   -7.6407    0.0000 O   0  0  0  0  0  0  0  0  0  0  0  0
   -1.7179   -6.8007    0.0000 N   0  0  0  0  0  0  0  0  0  0  0  0
   -2.2028   -7.4682    0.0000 C   0  0  2  0  0  0  0  0  0  0  0  0
   -1.8673   -8.2219    0.0000 C   0  0  0  0  0  0  0  0  0  0  0  0
   -2.3522   -8.8893    0.0000 O   0  0  0  0  0  0  0  0  0  0  0  0
   -3.0233   -7.3820    0.0000 C   0  0  0  0  0  0  0  0  0  0  0  0
   -3.5082   -8.0494    0.0000 C   0  0  0  0  0  0  0  0  0  0  0  0
   -4.3287   -7.9632    0.0000 C   0  0  0  0  0  0  0  0  0  0  0  0
   -4.6643   -7.2095    0.0000 C   0  0  0  0  0  0  0  0  0  0  0  0
   -4.1793   -6.5420    0.0000 C   0  0  0  0  0  0  0  0  0  0  0  0
   -4.5149   -5.7884    0.0000 Cl  0  0  0  0  0  0  0  0  0  0  0  0
   -3.3589   -6.6283    0.0000 C   0  0  0  0  0  0  0  0  0  0  0  0
  1  2  1  0  0  0  0
  2  3  4  0  0  0  0
  3  4  4  0  0  0  0
  4  5  4  0  0  0  0
  5  6  1  0  0  0  0
  6  7  1  0  0  0  0
  7  8  4  0  0  0  0
  8  9  4  0  0  0  0
  9 10  4  0  0  0  0
 10 11  4  0  0  0  0
 11 12  1  0  0  0  0
 12 13  1  0  0  0  0
 13 14  1  0  0  0  0
 14 15  1  0  0  0  0
 15 16  1  0  0  0  0
  7 16  4  0  0  0  0
 11 16  4  0  0  0  0
  5 17  4  0  0  0  0
 17 18  4  0  0  0  0
  2 18  4  0  0  0  0
 18 19  1  0  0  0  0
 19 20  4  0  0  0  0
 20 21  4  0  0  0  0
 21 22  4  0  0  0  0
 22 23  4  0  0  0  0
 19 23  4  0  0  0  0
 22 24  1  0  0  0  0
 24 25  2  0  0  0  0
 24 26  1  0  0  0  0
 27 26  1  6  0  0  0
 27 28  1  0  0  0  0
 28 29  1  0  0  0  0
 27 30  1  0  0  0  0
 30 31  4  0  0  0  0
 31 32  4  0  0  0  0
 32 33  4  0  0  0  0
 33 34  4  0  0  0  0
 34 35  1  0  0  0  0
 34 36  4  0  0  0  0
 30 36  4  0  0  0  0
M  STY  1   1 DAT
M  SAL   1  1  21
M  SDT   1 MRV_IMPLICIT_H                                        
M  SDD   1     0.5304   -0.4125    DR    ALL  0       0  
M  SED   1 IMPL_H1
M  END
> <BindingDB_ID/CHEMBL_ID>
35661

> <pKi>
6.6

> <Target Name>
Cyclin-A2/Cyclin-dependent kinase 2

> <Target Source Organism>
Homo sapiens

> <Target Uniprot>
P24941

> <Article DOI>
10.1021/jm900630q

$$$$

  Mrv2316 09262419122D          

 35 39  0  0  1  0            999 V2000
    6.1368    3.7125    0.0000 C   0  0  0  0  0  0  0  0  0  0  0  0
    5.4223    3.3000    0.0000 C   0  0  0  0  0  0  0  0  0  0  0  0
    5.4223    2.4750    0.0000 C   0  0  0  0  0  0  0  0  0  0  0  0
    4.7079    2.0625    0.0000 N   0  0  0  0  0  0  0  0  0  0  0  0
    3.9934    2.4750    0.0000 C   0  0  0  0  0  0  0  0  0  0  0  0
    3.2789    2.0625    0.0000 N   0  0  0  0  0  0  0  0  0  0  0  0
    3.2789    1.2375    0.0000 C   0  0  0  0  0  0  0  0  0  0  0  0
    3.9934    0.8250    0.0000 C   0  0  0  0  0  0  0  0  0  0  0  0
    3.9934    0.0000    0.0000 C   0  0  0  0  0  0  0  0  0  0  0  0
    3.2789   -0.4125    0.0000 C   0  0  0  0  0  0  0  0  0  0  0  0
    2.5645    0.0000    0.0000 C   0  0  0  0  0  0  0  0  0  0  0  0
    1.7798   -0.2549    0.0000 O   0  0  0  0  0  0  0  0  0  0  0  0
    1.2949    0.4125    0.0000 C   0  0  0  0  0  0  0  0  0  0  0  0
    1.7798    1.0799    0.0000 O   0  0  0  0  0  0  0  0  0  0  0  0
    2.5645    0.8250    0.0000 C   0  0  0  0  0  0  0  0  0  0  0  0
    3.9934    3.3000    0.0000 N   0  0  0  0  0  0  0  0  0  0  0  0
    4.7079    3.7125    0.0000 C   0  0  0  0  0  0  0  0  0  0  0  0
    4.7079    4.5375    0.0000 C   0  0  0  0  0  0  0  0  0  0  0  0
    4.0404    5.0224    0.0000 C   0  0  0  0  0  0  0  0  0  0  0  0
    4.2954    5.8070    0.0000 N   0  0  0  0  0  0  0  0  0  0  0  0
    5.1204    5.8070    0.0000 C   0  0  0  0  0  0  0  0  0  0  0  0
    5.3753    5.0224    0.0000 C   0  0  0  0  0  0  0  0  0  0  0  0
    5.6053    6.4745    0.0000 C   0  0  0  0  0  0  0  0  0  0  0  0
    5.2697    7.2282    0.0000 O   0  0  0  0  0  0  0  0  0  0  0  0
    6.4258    6.3882    0.0000 N   0  0  0  0  0  0  0  0  0  0  0  0
    6.9107    7.0557    0.0000 C   0  0  2  0  0  0  0  0  0  0  0  0
    6.5751    7.8094    0.0000 C   0  0  0  0  0  0  0  0  0  0  0  0
    7.0601    8.4768    0.0000 O   0  0  0  0  0  0  0  0  0  0  0  0
    7.7312    6.9695    0.0000 C   0  0  0  0  0  0  0  0  0  0  0  0
    8.2161    7.6369    0.0000 C   0  0  0  0  0  0  0  0  0  0  0  0
    9.0366    7.5507    0.0000 C   0  0  0  0  0  0  0  0  0  0  0  0
    9.3721    6.7970    0.0000 C   0  0  0  0  0  0  0  0  0  0  0  0
    8.8872    6.1295    0.0000 C   0  0  0  0  0  0  0  0  0  0  0  0
    9.2228    5.3759    0.0000 Cl  0  0  0  0  0  0  0  0  0  0  0  0
    8.0667    6.2158    0.0000 C   0  0  0  0  0  0  0  0  0  0  0  0
  1  2  1  0  0  0  0
  2  3  4  0  0  0  0
  3  4  4  0  0  0  0
  4  5  4  0  0  0  0
  5  6  1  0  0  0  0
  6  7  1  0  0  0  0
  7  8  4  0  0  0  0
  8  9  4  0  0  0  0
  9 10  4  0  0  0  0
 10 11  4  0  0  0  0
 11 12  1  0  0  0  0
 12 13  1  0  0  0  0
 13 14  1  0  0  0  0
 14 15  1  0  0  0  0
  7 15  4  0  0  0  0
 11 15  4  0  0  0  0
  5 16  4  0  0  0  0
 16 17  4  0  0  0  0
  2 17  4  0  0  0  0
 17 18  1  0  0  0  0
 18 19  4  0  0  0  0
 19 20  4  0  0  0  0
 20 21  4  0  0  0  0
 21 22  4  0  0  0  0
 18 22  4  0  0  0  0
 21 23  1  0  0  0  0
 23 24  2  0  0  0  0
 23 25  1  0  0  0  0
 26 25  1  6  0  0  0
 26 27  1  0  0  0  0
 27 28  1  0  0  0  0
 26 29  1  0  0  0  0
 29 30  4  0  0  0  0
 30 31  4  0  0  0  0
 31 32  4  0  0  0  0
 32 33  4  0  0  0  0
 33 34  1  0  0  0  0
 33 35  4  0  0  0  0
 29 35  4  0  0  0  0
M  STY  1   1 DAT
M  SAL   1  1  20
M  SDT   1 MRV_IMPLICIT_H                                        
M  SDD   1     0.5304   -0.4125    DR    ALL  0       0  
M  SED   1 IMPL_H1
M  END
> <BindingDB_ID/CHEMBL_ID>
35662

> <pKi>
6.7

> <Target Name>
Cyclin-A2/Cyclin-dependent kinase 2

> <Target Source Organism>
Homo sapiens

> <Target Uniprot>
P24941

> <Article DOI>
10.1021/jm900630q

$$$$

  Mrv2316 09262419122D          

 37 41  0  0  1  0            999 V2000
    6.1368    3.7125    0.0000 C   0  0  0  0  0  0  0  0  0  0  0  0
    5.4223    3.3000    0.0000 C   0  0  0  0  0  0  0  0  0  0  0  0
    5.4223    2.4750    0.0000 C   0  0  0  0  0  0  0  0  0  0  0  0
    4.7079    2.0625    0.0000 N   0  0  0  0  0  0  0  0  0  0  0  0
    3.9934    2.4750    0.0000 C   0  0  0  0  0  0  0  0  0  0  0  0
    3.2789    2.0625    0.0000 N   0  0  0  0  0  0  0  0  0  0  0  0
    3.2789    1.2375    0.0000 C   0  0  0  0  0  0  0  0  0  0  0  0
    3.9934    0.8250    0.0000 C   0  0  0  0  0  0  0  0  0  0  0  0
    3.9934    0.0000    0.0000 C   0  0  0  0  0  0  0  0  0  0  0  0
    3.2789   -0.4125    0.0000 C   0  0  0  0  0  0  0  0  0  0  0  0
    2.5645    0.0000    0.0000 C   0  0  0  0  0  0  0  0  0  0  0  0
    1.7798   -0.2549    0.0000 O   0  0  0  0  0  0  0  0  0  0  0  0
    1.2949    0.4125    0.0000 C   0  0  0  0  0  0  0  0  0  0  0  0
    0.6818   -0.1395    0.0000 F   0  0  0  0  0  0  0  0  0  0  0  0
    0.6818    0.9645    0.0000 F   0  0  0  0  0  0  0  0  0  0  0  0
    1.7798    1.0799    0.0000 O   0  0  0  0  0  0  0  0  0  0  0  0
    2.5645    0.8250    0.0000 C   0  0  0  0  0  0  0  0  0  0  0  0
    3.9934    3.3000    0.0000 N   0  0  0  0  0  0  0  0  0  0  0  0
    4.7079    3.7125    0.0000 C   0  0  0  0  0  0  0  0  0  0  0  0
    4.7079    4.5375    0.0000 C   0  0  0  0  0  0  0  0  0  0  0  0
    4.0404    5.0224    0.0000 C   0  0  0  0  0  0  0  0  0  0  0  0
    4.2954    5.8070    0.0000 N   0  0  0  0  0  0  0  0  0  0  0  0
    5.1204    5.8070    0.0000 C   0  0  0  0  0  0  0  0  0  0  0  0
    5.3753    5.0224    0.0000 C   0  0  0  0  0  0  0  0  0  0  0  0
    5.6053    6.4745    0.0000 C   0  0  0  0  0  0  0  0  0  0  0  0
    5.2697    7.2282    0.0000 O   0  0  0  0  0  0  0  0  0  0  0  0
    6.4258    6.3882    0.0000 N   0  0  0  0  0  0  0  0  0  0  0  0
    6.9107    7.0557    0.0000 C   0  0  2  0  0  0  0  0  0  0  0  0
    6.5751    7.8094    0.0000 C   0  0  0  0  0  0  0  0  0  0  0  0
    7.0601    8.4768    0.0000 O   0  0  0  0  0  0  0  0  0  0  0  0
    7.7312    6.9695    0.0000 C   0  0  0  0  0  0  0  0  0  0  0  0
    8.2161    7.6369    0.0000 C   0  0  0  0  0  0  0  0  0  0  0  0
    9.0366    7.5507    0.0000 C   0  0  0  0  0  0  0  0  0  0  0  0
    9.3721    6.7970    0.0000 C   0  0  0  0  0  0  0  0  0  0  0  0
    8.8872    6.1295    0.0000 C   0  0  0  0  0  0  0  0  0  0  0  0
    9.2228    5.3759    0.0000 Cl  0  0  0  0  0  0  0  0  0  0  0  0
    8.0667    6.2158    0.0000 C   0  0  0  0  0  0  0  0  0  0  0  0
  1  2  1  0  0  0  0
  2  3  4  0  0  0  0
  3  4  4  0  0  0  0
  4  5  4  0  0  0  0
  5  6  1  0  0  0  0
  6  7  1  0  0  0  0
  7  8  4  0  0  0  0
  8  9  4  0  0  0  0
  9 10  4  0  0  0  0
 10 11  4  0  0  0  0
 11 12  1  0  0  0  0
 12 13  1  0  0  0  0
 13 14  1  0  0  0  0
 13 15  1  0  0  0  0
 13 16  1  0  0  0  0
 16 17  1  0  0  0  0
  7 17  4  0  0  0  0
 11 17  4  0  0  0  0
  5 18  4  0  0  0  0
 18 19  4  0  0  0  0
  2 19  4  0  0  0  0
 19 20  1  0  0  0  0
 20 21  4  0  0  0  0
 21 22  4  0  0  0  0
 22 23  4  0  0  0  0
 23 24  4  0  0  0  0
 20 24  4  0  0  0  0
 23 25  1  0  0  0  0
 25 26  2  0  0  0  0
 25 27  1  0  0  0  0
 28 27  1  6  0  0  0
 28 29  1  0  0  0  0
 29 30  1  0  0  0  0
 28 31  1  0  0  0  0
 31 32  4  0  0  0  0
 32 33  4  0  0  0  0
 33 34  4  0  0  0  0
 34 35  4  0  0  0  0
 35 36  1  0  0  0  0
 35 37  4  0  0  0  0
 31 37  4  0  0  0  0
M  STY  1   1 DAT
M  SAL   1  1  22
M  SDT   1 MRV_IMPLICIT_H                                        
M  SDD   1     0.5304   -0.4125    DR    ALL  0       0  
M  SED   1 IMPL_H1
M  END
> <BindingDB_ID/CHEMBL_ID>
35663

> <pKi>
6.8

> <Target Name>
Cyclin-A2/Cyclin-dependent kinase 2

> <Target Source Organism>
Homo sapiens

> <Target Uniprot>
P24941

> <Article DOI>
10.1021/jm900630q

$$$$

  Mrv2316 09262419122D          

 36 40  0  0  1  0            999 V2000
   -1.4289   -4.1250    0.0000 C   0  0  0  0  0  0  0  0  0  0  0  0
   -0.7145   -3.7125    0.0000 C   0  0  0  0  0  0  0  0  0  0  0  0
   -0.7145   -2.8875    0.0000 C   0  0  0  0  0  0  0  0  0  0  0  0
    0.0000   -2.4750    0.0000 N   0  0  0  0  0  0  0  0  0  0  0  0
    0.7145   -2.8875    0.0000 C   0  0  0  0  0  0  0  0  0  0  0  0
    1.4289   -2.4750    0.0000 N   0  0  0  0  0  0  0  0  0  0  0  0
    1.4289   -1.6500    0.0000 C   0  0  0  0  0  0  0  0  0  0  0  0
    0.7145   -1.2375    0.0000 C   0  0  0  0  0  0  0  0  0  0  0  0
    0.7145   -0.4125    0.0000 C   0  0  0  0  0  0  0  0  0  0  0  0
    1.4289    0.0000    0.0000 C   0  0  0  0  0  0  0  0  0  0  0  0
    2.1434   -0.4125    0.0000 C   0  0  0  0  0  0  0  0  0  0  0  0
    2.8579    0.0000    0.0000 O   0  0  0  0  0  0  0  0  0  0  0  0
    3.5724   -0.4125    0.0000 C   0  0  0  0  0  0  0  0  0  0  0  0
    3.5724   -1.2375    0.0000 C   0  0  0  0  0  0  0  0  0  0  0  0
    2.8579   -1.6500    0.0000 O   0  0  0  0  0  0  0  0  0  0  0  0
    2.1434   -1.2375    0.0000 C   0  0  0  0  0  0  0  0  0  0  0  0
    0.7145   -3.7125    0.0000 N   0  0  0  0  0  0  0  0  0  0  0  0
    0.0000   -4.1250    0.0000 C   0  0  0  0  0  0  0  0  0  0  0  0
    0.0000   -4.9500    0.0000 C   0  0  0  0  0  0  0  0  0  0  0  0
    0.6674   -5.4349    0.0000 C   0  0  0  0  0  0  0  0  0  0  0  0
    0.4125   -6.2195    0.0000 N   0  0  0  0  0  0  0  0  0  0  0  0
   -0.4125   -6.2195    0.0000 C   0  0  0  0  0  0  0  0  0  0  0  0
   -0.6674   -5.4349    0.0000 C   0  0  0  0  0  0  0  0  0  0  0  0
   -0.8974   -6.8870    0.0000 C   0  0  0  0  0  0  0  0  0  0  0  0
   -0.5619   -7.6407    0.0000 O   0  0  0  0  0  0  0  0  0  0  0  0
   -1.7179   -6.8007    0.0000 N   0  0  0  0  0  0  0  0  0  0  0  0
   -2.2028   -7.4682    0.0000 C   0  0  2  0  0  0  0  0  0  0  0  0
   -1.8673   -8.2219    0.0000 C   0  0  0  0  0  0  0  0  0  0  0  0
   -2.3522   -8.8893    0.0000 O   0  0  0  0  0  0  0  0  0  0  0  0
   -3.0233   -7.3820    0.0000 C   0  0  0  0  0  0  0  0  0  0  0  0
   -3.5082   -8.0494    0.0000 C   0  0  0  0  0  0  0  0  0  0  0  0
   -4.3287   -7.9632    0.0000 C   0  0  0  0  0  0  0  0  0  0  0  0
   -4.6643   -7.2095    0.0000 C   0  0  0  0  0  0  0  0  0  0  0  0
   -4.1793   -6.5420    0.0000 C   0  0  0  0  0  0  0  0  0  0  0  0
   -4.5149   -5.7884    0.0000 Cl  0  0  0  0  0  0  0  0  0  0  0  0
   -3.3589   -6.6283    0.0000 C   0  0  0  0  0  0  0  0  0  0  0  0
  1  2  1  0  0  0  0
  2  3  4  0  0  0  0
  3  4  4  0  0  0  0
  4  5  4  0  0  0  0
  5  6  1  0  0  0  0
  6  7  1  0  0  0  0
  7  8  4  0  0  0  0
  8  9  4  0  0  0  0
  9 10  4  0  0  0  0
 10 11  4  0  0  0  0
 11 12  1  0  0  0  0
 12 13  1  0  0  0  0
 13 14  1  0  0  0  0
 14 15  1  0  0  0  0
 15 16  1  0  0  0  0
  7 16  4  0  0  0  0
 11 16  4  0  0  0  0
  5 17  4  0  0  0  0
 17 18  4  0  0  0  0
  2 18  4  0  0  0  0
 18 19  1  0  0  0  0
 19 20  4  0  0  0  0
 20 21  4  0  0  0  0
 21 22  4  0  0  0  0
 22 23  4  0  0  0  0
 19 23  4  0  0  0  0
 22 24  1  0  0  0  0
 24 25  2  0  0  0  0
 24 26  1  0  0  0  0
 27 26  1  6  0  0  0
 27 28  1  0  0  0  0
 28 29  1  0  0  0  0
 27 30  1  0  0  0  0
 30 31  4  0  0  0  0
 31 32  4  0  0  0  0
 32 33  4  0  0  0  0
 33 34  4  0  0  0  0
 34 35  1  0  0  0  0
 34 36  4  0  0  0  0
 30 36  4  0  0  0  0
M  STY  1   1 DAT
M  SAL   1  1  21
M  SDT   1 MRV_IMPLICIT_H                                        
M  SDD   1     0.5304   -0.4125    DR    ALL  0       0  
M  SED   1 IMPL_H1
M  END
> <BindingDB_ID/CHEMBL_ID>
35664

> <pKi>
6.9

> <Target Name>
Cyclin-A2/Cyclin-dependent kinase 2

> <Target Source Organism>
Homo sapiens

> <Target Uniprot>
P24941

> <Article DOI>
10.1021/jm900630q

$$$$

  Mrv2316 09262419122D          

 31 34  0  0  0  0            999 V2000
    4.8946   -4.5991    0.0000 C   0  0  0  0  0  0  0  0  0  0  0  0
    4.1801   -5.0116    0.0000 N   0  0  0  0  0  0  0  0  0  0  0  0
    4.1801   -5.8366    0.0000 C   0  0  0  0  0  0  0  0  0  0  0  0
    4.8476   -6.3215    0.0000 N   0  0  0  0  0  0  0  0  0  0  0  0
    4.5926   -7.1062    0.0000 C   0  0  0  0  0  0  0  0  0  0  0  0
    5.0775   -7.7736    0.0000 C   0  0  0  0  0  0  0  0  0  0  0  0
    3.7676   -7.1062    0.0000 C   0  0  0  0  0  0  0  0  0  0  0  0
    3.5127   -6.3215    0.0000 S   0  0  0  0  0  0  0  0  0  0  0  0
    3.2827   -7.7736    0.0000 C   0  0  0  0  0  0  0  0  0  0  0  0
    3.6183   -8.5273    0.0000 C   0  0  0  0  0  0  0  0  0  0  0  0
    3.1333   -9.1947    0.0000 C   0  0  0  0  0  0  0  0  0  0  0  0
    2.3129   -9.1085    0.0000 N   0  0  0  0  0  0  0  0  0  0  0  0
    1.9773   -8.3548    0.0000 C   0  0  0  0  0  0  0  0  0  0  0  0
    1.1568   -8.2686    0.0000 N   0  0  0  0  0  0  0  0  0  0  0  0
    0.6719   -8.9360    0.0000 C   0  0  0  0  0  0  0  0  0  0  0  0
    1.0074   -9.6897    0.0000 C   0  0  0  0  0  0  0  0  0  0  0  0
    0.5225  -10.3571    0.0000 C   0  0  0  0  0  0  0  0  0  0  0  0
   -0.2980  -10.2709    0.0000 C   0  0  0  0  0  0  0  0  0  0  0  0
   -0.7829  -10.9383    0.0000 C   0  0  0  0  0  0  0  0  0  0  0  0
   -0.6335   -9.5172    0.0000 C   0  0  0  0  0  0  0  0  0  0  0  0
   -0.1486   -8.8498    0.0000 C   0  0  0  0  0  0  0  0  0  0  0  0
   -1.4540   -9.4310    0.0000 S   0  0  0  0  0  0  0  0  0  0  0  0
   -1.3678   -8.6105    0.0000 O   0  0  0  0  0  0  0  0  0  0  0  0
   -1.5402  -10.2514    0.0000 O   0  0  0  0  0  0  0  0  0  0  0  0
   -2.2745   -9.3447    0.0000 N   0  0  0  0  0  0  0  0  0  0  0  0
   -2.7594  -10.0122    0.0000 C   0  0  0  0  0  0  0  0  0  0  0  0
   -3.5799   -9.9259    0.0000 C   0  0  0  0  0  0  0  0  0  0  0  0
   -3.9154   -9.1723    0.0000 O   0  0  0  0  0  0  0  0  0  0  0  0
   -3.4305   -8.5048    0.0000 C   0  0  0  0  0  0  0  0  0  0  0  0
   -2.6100   -8.5911    0.0000 C   0  0  0  0  0  0  0  0  0  0  0  0
    2.4622   -7.6874    0.0000 N   0  0  0  0  0  0  0  0  0  0  0  0
  1  2  1  0  0  0  0
  2  3  1  0  0  0  0
  3  4  4  0  0  0  0
  4  5  4  0  0  0  0
  5  6  1  0  0  0  0
  5  7  4  0  0  0  0
  7  8  4  0  0  0  0
  3  8  4  0  0  0  0
  7  9  1  0  0  0  0
  9 10  4  0  0  0  0
 10 11  4  0  0  0  0
 11 12  4  0  0  0  0
 12 13  4  0  0  0  0
 13 14  1  0  0  0  0
 14 15  1  0  0  0  0
 15 16  4  0  0  0  0
 16 17  4  0  0  0  0
 17 18  4  0  0  0  0
 18 19  1  0  0  0  0
 18 20  4  0  0  0  0
 20 21  4  0  0  0  0
 15 21  4  0  0  0  0
 20 22  1  0  0  0  0
 22 23  2  0  0  0  0
 22 24  2  0  0  0  0
 22 25  1  0  0  0  0
 25 26  1  0  0  0  0
 26 27  1  0  0  0  0
 27 28  1  0  0  0  0
 28 29  1  0  0  0  0
 29 30  1  0  0  0  0
 25 30  1  0  0  0  0
 13 31  4  0  0  0  0
  9 31  4  0  0  0  0
M  END
> <BindingDB_ID/CHEMBL_ID>
81436

> <pKi>
6.5

> <Target Name>
Cyclin-A2/Cyclin-dependent kinase 2

> <Target Source Organism>
Homo sapiens

> <Target Uniprot>
P24941

> <Article DOI>
10.1016/j.ejmech.2013.08.052

$$$$

  Mrv2316 09262419122D          

 30 34  0  0  0  0            999 V2000
   -2.1434   -2.8875    0.0000 C   0  0  0  0  0  0  0  0  0  0  0  0
   -1.4289   -2.4750    0.0000 O   0  0  0  0  0  0  0  0  0  0  0  0
   -0.7145   -2.8875    0.0000 C   0  0  0  0  0  0  0  0  0  0  0  0
   -0.7145   -3.7125    0.0000 C   0  0  0  0  0  0  0  0  0  0  0  0
    0.0000   -4.1250    0.0000 C   0  0  0  0  0  0  0  0  0  0  0  0
    0.7145   -3.7125    0.0000 C   0  0  0  0  0  0  0  0  0  0  0  0
    0.7145   -2.8875    0.0000 C   0  0  0  0  0  0  0  0  0  0  0  0
    0.0000   -2.4750    0.0000 C   0  0  0  0  0  0  0  0  0  0  0  0
    0.0000   -1.6500    0.0000 N   0  0  0  0  0  0  0  0  0  0  0  0
    0.7145   -1.2375    0.0000 C   0  0  0  0  0  0  0  0  0  0  0  0
    0.7145   -0.4125    0.0000 N   0  0  0  0  0  0  0  0  0  0  0  0
    1.4289    0.0000    0.0000 C   0  0  0  0  0  0  0  0  0  0  0  0
    2.1434   -0.4125    0.0000 C   0  0  0  0  0  0  0  0  0  0  0  0
    2.8579    0.0000    0.0000 C   0  0  0  0  0  0  0  0  0  0  0  0
    3.5724   -0.4125    0.0000 C   0  0  0  0  0  0  0  0  0  0  0  0
    3.5724   -1.2375    0.0000 N   0  0  0  0  0  0  0  0  0  0  0  0
    2.8579   -1.6500    0.0000 C   0  0  0  0  0  0  0  0  0  0  0  0
    2.8579   -2.4750    0.0000 N   0  0  0  0  0  0  0  0  0  0  0  0
    3.5253   -2.9599    0.0000 C   0  0  0  0  0  0  0  0  0  0  0  0
    3.2704   -3.7445    0.0000 C   0  0  0  0  0  0  0  0  0  0  0  0
    2.4454   -3.7445    0.0000 C   0  0  0  0  0  0  0  0  0  0  0  0
    2.1904   -2.9599    0.0000 C   0  0  0  0  0  0  0  0  0  0  0  0
    2.1434   -1.2375    0.0000 C   0  0  0  0  0  0  0  0  0  0  0  0
    1.4289   -1.6500    0.0000 N   0  0  0  0  0  0  0  0  0  0  0  0
    0.0000   -4.9500    0.0000 C   0  0  0  0  0  0  0  0  0  0  0  0
   -0.6674   -5.4349    0.0000 C   0  0  0  0  0  0  0  0  0  0  0  0
   -0.4125   -6.2195    0.0000 N   0  0  0  0  0  0  0  0  0  0  0  0
    0.4125   -6.2195    0.0000 N   0  0  0  0  0  0  0  0  0  0  0  0
    0.8974   -6.8870    0.0000 C   0  0  0  0  0  0  0  0  0  0  0  0
    0.6674   -5.4349    0.0000 C   0  0  0  0  0  0  0  0  0  0  0  0
  1  2  1  0  0  0  0
  2  3  1  0  0  0  0
  3  4  4  0  0  0  0
  4  5  4  0  0  0  0
  5  6  4  0  0  0  0
  6  7  4  0  0  0  0
  7  8  4  0  0  0  0
  3  8  4  0  0  0  0
  8  9  1  0  0  0  0
  9 10  1  0  0  0  0
 10 11  4  0  0  0  0
 11 12  4  0  0  0  0
 12 13  4  0  0  0  0
 13 14  4  0  0  0  0
 14 15  4  0  0  0  0
 15 16  4  0  0  0  0
 16 17  4  0  0  0  0
 17 18  1  0  0  0  0
 18 19  1  0  0  0  0
 19 20  1  0  0  0  0
 20 21  1  0  0  0  0
 21 22  1  0  0  0  0
 18 22  1  0  0  0  0
 17 23  4  0  0  0  0
 13 23  4  0  0  0  0
 23 24  4  0  0  0  0
 10 24  4  0  0  0  0
  5 25  1  0  0  0  0
 25 26  4  0  0  0  0
 26 27  4  0  0  0  0
 27 28  4  0  0  0  0
 28 29  1  0  0  0  0
 28 30  4  0  0  0  0
 25 30  4  0  0  0  0
M  END
> <BindingDB_ID/CHEMBL_ID>
241195

> <pKi>
5.8

> <Target Name>
Cyclin-A2/Cyclin-dependent kinase 2

> <Target Source Organism>
Homo sapiens

> <Target Uniprot>
P24941

> <Article DOI>
10.1021/acs.jmedchem.5b01811

$$$$

  Mrv2316 09262419122D          

 32 35  0  0  0  0            999 V2000
    2.1434   -2.8875    0.0000 C   0  0  0  0  0  0  0  0  0  0  0  0
    1.4289   -2.4750    0.0000 O   0  0  0  0  0  0  0  0  0  0  0  0
    0.7145   -2.8875    0.0000 C   0  0  0  0  0  0  0  0  0  0  0  0
    0.7145   -3.7125    0.0000 C   0  0  0  0  0  0  0  0  0  0  0  0
    0.0000   -4.1250    0.0000 C   0  0  0  0  0  0  0  0  0  0  0  0
   -0.7145   -3.7125    0.0000 C   0  0  0  0  0  0  0  0  0  0  0  0
   -0.7145   -2.8875    0.0000 C   0  0  0  0  0  0  0  0  0  0  0  0
    0.0000   -2.4750    0.0000 C   0  0  0  0  0  0  0  0  0  0  0  0
    0.0000   -1.6500    0.0000 N   0  0  0  0  0  0  0  0  0  0  0  0
    0.7145   -1.2375    0.0000 C   0  0  0  0  0  0  0  0  0  0  0  0
    0.7145   -0.4125    0.0000 N   0  0  0  0  0  0  0  0  0  0  0  0
    1.4289    0.0000    0.0000 C   0  0  0  0  0  0  0  0  0  0  0  0
    2.1434   -0.4125    0.0000 C   0  0  0  0  0  0  0  0  0  0  0  0
    2.8579    0.0000    0.0000 C   0  0  0  0  0  0  0  0  0  0  0  0
    3.5724   -0.4125    0.0000 C   0  0  0  0  0  0  0  0  0  0  0  0
    3.5724   -1.2375    0.0000 N   0  0  0  0  0  0  0  0  0  0  0  0
    2.8579   -1.6500    0.0000 C   0  0  0  0  0  0  0  0  0  0  0  0
    2.8579   -2.4750    0.0000 N   0  0  0  0  0  0  0  0  0  0  0  0
    3.5724   -2.8875    0.0000 C   0  0  0  0  0  0  0  0  0  0  0  0
    3.5724   -3.7125    0.0000 C   0  0  0  0  0  0  0  0  0  0  0  0
    3.5724   -4.5375    0.0000 C   0  0  0  0  0  0  0  0  0  0  0  0
    4.3974   -3.7125    0.0000 C   0  0  0  0  0  0  0  0  0  0  0  0
    2.7474   -3.7125    0.0000 C   0  0  0  0  0  0  0  0  0  0  0  0
    2.1434   -1.2375    0.0000 C   0  0  0  0  0  0  0  0  0  0  0  0
    1.4289   -1.6500    0.0000 N   0  0  0  0  0  0  0  0  0  0  0  0
   -0.0000   -4.9500    0.0000 C   0  0  0  0  0  0  0  0  0  0  0  0
    0.6674   -5.4349    0.0000 C   0  0  0  0  0  0  0  0  0  0  0  0
    0.4125   -6.2195    0.0000 N   0  0  0  0  0  0  0  0  0  0  0  0
    0.8974   -6.8870    0.0000 C   0  0  0  0  0  0  0  0  0  0  0  0
   -0.4125   -6.2195    0.0000 N   0  0  0  0  0  0  0  0  0  0  0  0
   -0.6674   -5.4349    0.0000 C   0  0  0  0  0  0  0  0  0  0  0  0
   -1.4521   -5.1800    0.0000 C   0  0  0  0  0  0  0  0  0  0  0  0
  1  2  1  0  0  0  0
  2  3  1  0  0  0  0
  3  4  4  0  0  0  0
  4  5  4  0  0  0  0
  5  6  4  0  0  0  0
  6  7  4  0  0  0  0
  7  8  4  0  0  0  0
  3  8  4  0  0  0  0
  8  9  1  0  0  0  0
  9 10  1  0  0  0  0
 10 11  4  0  0  0  0
 11 12  4  0  0  0  0
 12 13  4  0  0  0  0
 13 14  4  0  0  0  0
 14 15  4  0  0  0  0
 15 16  4  0  0  0  0
 16 17  4  0  0  0  0
 17 18  1  0  0  0  0
 18 19  1  0  0  0  0
 19 20  1  0  0  0  0
 20 21  1  0  0  0  0
 20 22  1  0  0  0  0
 20 23  1  0  0  0  0
 17 24  4  0  0  0  0
 13 24  4  0  0  0  0
 24 25  4  0  0  0  0
 10 25  4  0  0  0  0
  5 26  1  0  0  0  0
 26 27  4  0  0  0  0
 27 28  4  0  0  0  0
 28 29  1  0  0  0  0
 28 30  4  0  0  0  0
 30 31  4  0  0  0  0
 26 31  4  0  0  0  0
 31 32  1  0  0  0  0
M  END
> <BindingDB_ID/CHEMBL_ID>
241206

> <pKi>
5.9

> <Target Name>
Cyclin-A2/Cyclin-dependent kinase 2

> <Target Source Organism>
Homo sapiens

> <Target Uniprot>
P24941

> <Article DOI>
10.1021/acs.jmedchem.8b00690

$$$$

  Mrv2316 09262419122D          

 32 35  0  0  0  0            999 V2000
    2.1434   -2.8875    0.0000 C   0  0  0  0  0  0  0  0  0  0  0  0
    1.4289   -2.4750    0.0000 O   0  0  0  0  0  0  0  0  0  0  0  0
    0.7145   -2.8875    0.0000 C   0  0  0  0  0  0  0  0  0  0  0  0
    0.7145   -3.7125    0.0000 C   0  0  0  0  0  0  0  0  0  0  0  0
    0.0000   -4.1250    0.0000 C   0  0  0  0  0  0  0  0  0  0  0  0
   -0.7145   -3.7125    0.0000 C   0  0  0  0  0  0  0  0  0  0  0  0
   -0.7145   -2.8875    0.0000 C   0  0  0  0  0  0  0  0  0  0  0  0
    0.0000   -2.4750    0.0000 C   0  0  0  0  0  0  0  0  0  0  0  0
    0.0000   -1.6500    0.0000 N   0  0  0  0  0  0  0  0  0  0  0  0
    0.7145   -1.2375    0.0000 C   0  0  0  0  0  0  0  0  0  0  0  0
    0.7145   -0.4125    0.0000 N   0  0  0  0  0  0  0  0  0  0  0  0
    1.4289    0.0000    0.0000 C   0  0  0  0  0  0  0  0  0  0  0  0
    2.1434   -0.4125    0.0000 C   0  0  0  0  0  0  0  0  0  0  0  0
    2.8579    0.0000    0.0000 C   0  0  0  0  0  0  0  0  0  0  0  0
    3.5724   -0.4125    0.0000 C   0  0  0  0  0  0  0  0  0  0  0  0
    3.5724   -1.2375    0.0000 N   0  0  0  0  0  0  0  0  0  0  0  0
    2.8579   -1.6500    0.0000 C   0  0  0  0  0  0  0  0  0  0  0  0
    2.8579   -2.4750    0.0000 N   0  0  0  0  0  0  0  0  0  0  0  0
    3.5724   -2.8875    0.0000 C   0  0  0  0  0  0  0  0  0  0  0  0
    3.5724   -3.7125    0.0000 C   0  0  0  0  0  0  0  0  0  0  0  0
    3.5724   -4.5375    0.0000 C   0  0  0  0  0  0  0  0  0  0  0  0
    4.3974   -3.7125    0.0000 C   0  0  0  0  0  0  0  0  0  0  0  0
    2.7474   -3.7125    0.0000 C   0  0  0  0  0  0  0  0  0  0  0  0
    2.1434   -1.2375    0.0000 C   0  0  0  0  0  0  0  0  0  0  0  0
    1.4289   -1.6500    0.0000 N   0  0  0  0  0  0  0  0  0  0  0  0
   -0.0000   -4.9500    0.0000 C   0  0  0  0  0  0  0  0  0  0  0  0
    0.6674   -5.4349    0.0000 C   0  0  0  0  0  0  0  0  0  0  0  0
    0.4125   -6.2195    0.0000 N   0  0  0  0  0  0  0  0  0  0  0  0
   -0.4125   -6.2195    0.0000 N   0  0  0  0  0  0  0  0  0  0  0  0
   -0.8974   -6.8870    0.0000 C   0  0  0  0  0  0  0  0  0  0  0  0
   -0.6674   -5.4349    0.0000 C   0  0  0  0  0  0  0  0  0  0  0  0
   -1.4521   -5.1800    0.0000 C   0  0  0  0  0  0  0  0  0  0  0  0
  1  2  1  0  0  0  0
  2  3  1  0  0  0  0
  3  4  4  0  0  0  0
  4  5  4  0  0  0  0
  5  6  4  0  0  0  0
  6  7  4  0  0  0  0
  7  8  4  0  0  0  0
  3  8  4  0  0  0  0
  8  9  1  0  0  0  0
  9 10  1  0  0  0  0
 10 11  4  0  0  0  0
 11 12  4  0  0  0  0
 12 13  4  0  0  0  0
 13 14  4  0  0  0  0
 14 15  4  0  0  0  0
 15 16  4  0  0  0  0
 16 17  4  0  0  0  0
 17 18  1  0  0  0  0
 18 19  1  0  0  0  0
 19 20  1  0  0  0  0
 20 21  1  0  0  0  0
 20 22  1  0  0  0  0
 20 23  1  0  0  0  0
 17 24  4  0  0  0  0
 13 24  4  0  0  0  0
 24 25  4  0  0  0  0
 10 25  4  0  0  0  0
  5 26  1  0  0  0  0
 26 27  4  0  0  0  0
 27 28  4  0  0  0  0
 28 29  4  0  0  0  0
 29 30  1  0  0  0  0
 29 31  4  0  0  0  0
 26 31  4  0  0  0  0
 31 32  1  0  0  0  0
M  END
> <BindingDB_ID/CHEMBL_ID>
241207

> <pKi>
5.8

> <Target Name>
Cyclin-A2/Cyclin-dependent kinase 2

> <Target Source Organism>
Homo sapiens

> <Target Uniprot>
P24941

> <Article DOI>
10.1021/acs.jmedchem.8b00690

$$$$

  Mrv2316 09262419122D          

 32 35  0  0  0  0            999 V2000
    2.1434   -2.8875    0.0000 C   0  0  0  0  0  0  0  0  0  0  0  0
    1.4289   -2.4750    0.0000 O   0  0  0  0  0  0  0  0  0  0  0  0
    0.7145   -2.8875    0.0000 C   0  0  0  0  0  0  0  0  0  0  0  0
    0.7145   -3.7125    0.0000 C   0  0  0  0  0  0  0  0  0  0  0  0
    0.0000   -4.1250    0.0000 C   0  0  0  0  0  0  0  0  0  0  0  0
   -0.7145   -3.7125    0.0000 C   0  0  0  0  0  0  0  0  0  0  0  0
   -0.7145   -2.8875    0.0000 C   0  0  0  0  0  0  0  0  0  0  0  0
    0.0000   -2.4750    0.0000 C   0  0  0  0  0  0  0  0  0  0  0  0
    0.0000   -1.6500    0.0000 N   0  0  0  0  0  0  0  0  0  0  0  0
    0.7145   -1.2375    0.0000 C   0  0  0  0  0  0  0  0  0  0  0  0
    0.7145   -0.4125    0.0000 N   0  0  0  0  0  0  0  0  0  0  0  0
    1.4289    0.0000    0.0000 C   0  0  0  0  0  0  0  0  0  0  0  0
    2.1434   -0.4125    0.0000 C   0  0  0  0  0  0  0  0  0  0  0  0
    2.8579    0.0000    0.0000 C   0  0  0  0  0  0  0  0  0  0  0  0
    3.5724   -0.4125    0.0000 C   0  0  0  0  0  0  0  0  0  0  0  0
    3.5724   -1.2375    0.0000 N   0  0  0  0  0  0  0  0  0  0  0  0
    2.8579   -1.6500    0.0000 C   0  0  0  0  0  0  0  0  0  0  0  0
    2.8579   -2.4750    0.0000 N   0  0  0  0  0  0  0  0  0  0  0  0
    3.5724   -2.8875    0.0000 C   0  0  0  0  0  0  0  0  0  0  0  0
    3.5724   -3.7125    0.0000 C   0  0  0  0  0  0  0  0  0  0  0  0
    3.5724   -4.5375    0.0000 C   0  0  0  0  0  0  0  0  0  0  0  0
    4.3974   -3.7125    0.0000 C   0  0  0  0  0  0  0  0  0  0  0  0
    2.7474   -3.7125    0.0000 C   0  0  0  0  0  0  0  0  0  0  0  0
    2.1434   -1.2375    0.0000 C   0  0  0  0  0  0  0  0  0  0  0  0
    1.4289   -1.6500    0.0000 N   0  0  0  0  0  0  0  0  0  0  0  0
   -0.0000   -4.9500    0.0000 C   0  0  0  0  0  0  0  0  0  0  0  0
    0.6674   -5.4349    0.0000 C   0  0  0  0  0  0  0  0  0  0  0  0
    0.4125   -6.2195    0.0000 N   0  0  0  0  0  0  0  0  0  0  0  0
   -0.4125   -6.2195    0.0000 C   0  0  0  0  0  0  0  0  0  0  0  0
   -0.8974   -6.8870    0.0000 C   0  0  0  0  0  0  0  0  0  0  0  0
   -0.6674   -5.4349    0.0000 N   0  0  0  0  0  0  0  0  0  0  0  0
   -1.4521   -5.1800    0.0000 C   0  0  0  0  0  0  0  0  0  0  0  0
  1  2  1  0  0  0  0
  2  3  1  0  0  0  0
  3  4  4  0  0  0  0
  4  5  4  0  0  0  0
  5  6  4  0  0  0  0
  6  7  4  0  0  0  0
  7  8  4  0  0  0  0
  3  8  4  0  0  0  0
  8  9  1  0  0  0  0
  9 10  1  0  0  0  0
 10 11  4  0  0  0  0
 11 12  4  0  0  0  0
 12 13  4  0  0  0  0
 13 14  4  0  0  0  0
 14 15  4  0  0  0  0
 15 16  4  0  0  0  0
 16 17  4  0  0  0  0
 17 18  1  0  0  0  0
 18 19  1  0  0  0  0
 19 20  1  0  0  0  0
 20 21  1  0  0  0  0
 20 22  1  0  0  0  0
 20 23  1  0  0  0  0
 17 24  4  0  0  0  0
 13 24  4  0  0  0  0
 24 25  4  0  0  0  0
 10 25  4  0  0  0  0
  5 26  1  0  0  0  0
 26 27  4  0  0  0  0
 27 28  4  0  0  0  0
 28 29  4  0  0  0  0
 29 30  1  0  0  0  0
 29 31  4  0  0  0  0
 26 31  4  0  0  0  0
 31 32  1  0  0  0  0
M  END
> <BindingDB_ID/CHEMBL_ID>
241208

> <pKi>
7.4

> <Target Name>
Cyclin-A2/Cyclin-dependent kinase 2

> <Target Source Organism>
Homo sapiens

> <Target Uniprot>
P24941

> <Article DOI>
10.1021/acs.jmedchem.8b00690

$$$$

  Mrv2316 09262419122D          

 32 36  0  0  0  0            999 V2000
    2.1434   -2.8875    0.0000 C   0  0  0  0  0  0  0  0  0  0  0  0
    1.4289   -2.4750    0.0000 O   0  0  0  0  0  0  0  0  0  0  0  0
    0.7145   -2.8875    0.0000 C   0  0  0  0  0  0  0  0  0  0  0  0
    0.7145   -3.7125    0.0000 C   0  0  0  0  0  0  0  0  0  0  0  0
    0.0000   -4.1250    0.0000 C   0  0  0  0  0  0  0  0  0  0  0  0
   -0.7145   -3.7125    0.0000 C   0  0  0  0  0  0  0  0  0  0  0  0
   -0.7145   -2.8875    0.0000 C   0  0  0  0  0  0  0  0  0  0  0  0
    0.0000   -2.4750    0.0000 C   0  0  0  0  0  0  0  0  0  0  0  0
    0.0000   -1.6500    0.0000 N   0  0  0  0  0  0  0  0  0  0  0  0
    0.7145   -1.2375    0.0000 C   0  0  0  0  0  0  0  0  0  0  0  0
    0.7145   -0.4125    0.0000 N   0  0  0  0  0  0  0  0  0  0  0  0
    1.4289    0.0000    0.0000 C   0  0  0  0  0  0  0  0  0  0  0  0
    2.1434   -0.4125    0.0000 C   0  0  0  0  0  0  0  0  0  0  0  0
    2.8579    0.0000    0.0000 C   0  0  0  0  0  0  0  0  0  0  0  0
    3.5724   -0.4125    0.0000 C   0  0  0  0  0  0  0  0  0  0  0  0
    3.5724   -1.2375    0.0000 N   0  0  0  0  0  0  0  0  0  0  0  0
    2.8579   -1.6500    0.0000 C   0  0  0  0  0  0  0  0  0  0  0  0
    2.8579   -2.4750    0.0000 N   0  0  0  0  0  0  0  0  0  0  0  0
    3.5724   -2.8875    0.0000 C   0  0  0  0  0  0  0  0  0  0  0  0
    4.2868   -2.4750    0.0000 C   0  0  0  0  0  0  0  0  0  0  0  0
    5.0013   -2.8875    0.0000 C   0  0  0  0  0  0  0  0  0  0  0  0
    5.0013   -3.7125    0.0000 C   0  0  0  0  0  0  0  0  0  0  0  0
    4.2868   -4.1250    0.0000 C   0  0  0  0  0  0  0  0  0  0  0  0
    3.5724   -3.7125    0.0000 C   0  0  0  0  0  0  0  0  0  0  0  0
    2.1434   -1.2375    0.0000 C   0  0  0  0  0  0  0  0  0  0  0  0
    1.4289   -1.6500    0.0000 N   0  0  0  0  0  0  0  0  0  0  0  0
   -0.0000   -4.9500    0.0000 C   0  0  0  0  0  0  0  0  0  0  0  0
    0.6674   -5.4349    0.0000 C   0  0  0  0  0  0  0  0  0  0  0  0
    0.4125   -6.2195    0.0000 N   0  0  0  0  0  0  0  0  0  0  0  0
   -0.4125   -6.2195    0.0000 N   0  0  0  0  0  0  0  0  0  0  0  0
   -0.8974   -6.8870    0.0000 C   0  0  0  0  0  0  0  0  0  0  0  0
   -0.6674   -5.4349    0.0000 C   0  0  0  0  0  0  0  0  0  0  0  0
  1  2  1  0  0  0  0
  2  3  1  0  0  0  0
  3  4  4  0  0  0  0
  4  5  4  0  0  0  0
  5  6  4  0  0  0  0
  6  7  4  0  0  0  0
  7  8  4  0  0  0  0
  3  8  4  0  0  0  0
  8  9  1  0  0  0  0
  9 10  1  0  0  0  0
 10 11  4  0  0  0  0
 11 12  4  0  0  0  0
 12 13  4  0  0  0  0
 13 14  4  0  0  0  0
 14 15  4  0  0  0  0
 15 16  4  0  0  0  0
 16 17  4  0  0  0  0
 17 18  1  0  0  0  0
 18 19  1  0  0  0  0
 19 20  1  0  0  0  0
 20 21  1  0  0  0  0
 21 22  1  0  0  0  0
 22 23  1  0  0  0  0
 23 24  1  0  0  0  0
 19 24  1  0  0  0  0
 17 25  4  0  0  0  0
 13 25  4  0  0  0  0
 25 26  4  0  0  0  0
 10 26  4  0  0  0  0
  5 27  1  0  0  0  0
 27 28  4  0  0  0  0
 28 29  4  0  0  0  0
 29 30  4  0  0  0  0
 30 31  1  0  0  0  0
 30 32  4  0  0  0  0
 27 32  4  0  0  0  0
M  END
> <BindingDB_ID/CHEMBL_ID>
241213

> <pKi>
7.0

> <Target Name>
Cyclin-A2/Cyclin-dependent kinase 2

> <Target Source Organism>
Homo sapiens

> <Target Uniprot>
P24941

> <Article DOI>
10.1021/acs.jmedchem.5b01811

$$$$

  Mrv2316 09262419122D          

 30 34  0  0  0  0            999 V2000
    2.1434   -2.8875    0.0000 C   0  0  0  0  0  0  0  0  0  0  0  0
    1.4289   -2.4750    0.0000 O   0  0  0  0  0  0  0  0  0  0  0  0
    0.7145   -2.8875    0.0000 C   0  0  0  0  0  0  0  0  0  0  0  0
    0.7145   -3.7125    0.0000 C   0  0  0  0  0  0  0  0  0  0  0  0
    0.0000   -4.1250    0.0000 C   0  0  0  0  0  0  0  0  0  0  0  0
   -0.7145   -3.7125    0.0000 C   0  0  0  0  0  0  0  0  0  0  0  0
   -0.7145   -2.8875    0.0000 C   0  0  0  0  0  0  0  0  0  0  0  0
    0.0000   -2.4750    0.0000 C   0  0  0  0  0  0  0  0  0  0  0  0
    0.0000   -1.6500    0.0000 N   0  0  0  0  0  0  0  0  0  0  0  0
    0.7145   -1.2375    0.0000 C   0  0  0  0  0  0  0  0  0  0  0  0
    0.7145   -0.4125    0.0000 N   0  0  0  0  0  0  0  0  0  0  0  0
    1.4289    0.0000    0.0000 C   0  0  0  0  0  0  0  0  0  0  0  0
    2.1434   -0.4125    0.0000 C   0  0  0  0  0  0  0  0  0  0  0  0
    2.8579    0.0000    0.0000 C   0  0  0  0  0  0  0  0  0  0  0  0
    3.5724   -0.4125    0.0000 C   0  0  0  0  0  0  0  0  0  0  0  0
    3.5724   -1.2375    0.0000 N   0  0  0  0  0  0  0  0  0  0  0  0
    2.8579   -1.6500    0.0000 C   0  0  0  0  0  0  0  0  0  0  0  0
    2.8579   -2.4750    0.0000 N   0  0  0  0  0  0  0  0  0  0  0  0
    3.5724   -2.8875    0.0000 C   0  0  0  0  0  0  0  0  0  0  0  0
    3.5724   -3.7125    0.0000 C   0  0  0  0  0  0  0  0  0  0  0  0
    3.9849   -4.4270    0.0000 C   0  0  0  0  0  0  0  0  0  0  0  0
    3.1599   -4.4270    0.0000 C   0  0  0  0  0  0  0  0  0  0  0  0
    2.1434   -1.2375    0.0000 C   0  0  0  0  0  0  0  0  0  0  0  0
    1.4289   -1.6500    0.0000 N   0  0  0  0  0  0  0  0  0  0  0  0
   -0.0000   -4.9500    0.0000 C   0  0  0  0  0  0  0  0  0  0  0  0
    0.6674   -5.4349    0.0000 C   0  0  0  0  0  0  0  0  0  0  0  0
    0.4125   -6.2195    0.0000 N   0  0  0  0  0  0  0  0  0  0  0  0
   -0.4125   -6.2195    0.0000 N   0  0  0  0  0  0  0  0  0  0  0  0
   -0.8974   -6.8870    0.0000 C   0  0  0  0  0  0  0  0  0  0  0  0
   -0.6674   -5.4349    0.0000 C   0  0  0  0  0  0  0  0  0  0  0  0
  1  2  1  0  0  0  0
  2  3  1  0  0  0  0
  3  4  4  0  0  0  0
  4  5  4  0  0  0  0
  5  6  4  0  0  0  0
  6  7  4  0  0  0  0
  7  8  4  0  0  0  0
  3  8  4  0  0  0  0
  8  9  1  0  0  0  0
  9 10  1  0  0  0  0
 10 11  4  0  0  0  0
 11 12  4  0  0  0  0
 12 13  4  0  0  0  0
 13 14  4  0  0  0  0
 14 15  4  0  0  0  0
 15 16  4  0  0  0  0
 16 17  4  0  0  0  0
 17 18  1  0  0  0  0
 18 19  1  0  0  0  0
 19 20  1  0  0  0  0
 20 21  1  0  0  0  0
 21 22  1  0  0  0  0
 20 22  1  0  0  0  0
 17 23  4  0  0  0  0
 13 23  4  0  0  0  0
 23 24  4  0  0  0  0
 10 24  4  0  0  0  0
  5 25  1  0  0  0  0
 25 26  4  0  0  0  0
 26 27  4  0  0  0  0
 27 28  4  0  0  0  0
 28 29  1  0  0  0  0
 28 30  4  0  0  0  0
 25 30  4  0  0  0  0
M  END
> <BindingDB_ID/CHEMBL_ID>
241216

> <pKi>
6.3

> <Target Name>
Cyclin-A2/Cyclin-dependent kinase 2

> <Target Source Organism>
Homo sapiens

> <Target Uniprot>
P24941

> <Article DOI>
10.1021/acs.jmedchem.5b01811

$$$$

  Mrv2316 09262419122D          

 30 33  0  0  0  0            999 V2000
    2.1434   -2.8875    0.0000 C   0  0  0  0  0  0  0  0  0  0  0  0
    1.4289   -2.4750    0.0000 O   0  0  0  0  0  0  0  0  0  0  0  0
    0.7145   -2.8875    0.0000 C   0  0  0  0  0  0  0  0  0  0  0  0
    0.7145   -3.7125    0.0000 C   0  0  0  0  0  0  0  0  0  0  0  0
    0.0000   -4.1250    0.0000 C   0  0  0  0  0  0  0  0  0  0  0  0
   -0.7145   -3.7125    0.0000 C   0  0  0  0  0  0  0  0  0  0  0  0
   -0.7145   -2.8875    0.0000 C   0  0  0  0  0  0  0  0  0  0  0  0
    0.0000   -2.4750    0.0000 C   0  0  0  0  0  0  0  0  0  0  0  0
    0.0000   -1.6500    0.0000 N   0  0  0  0  0  0  0  0  0  0  0  0
    0.7145   -1.2375    0.0000 C   0  0  0  0  0  0  0  0  0  0  0  0
    0.7145   -0.4125    0.0000 N   0  0  0  0  0  0  0  0  0  0  0  0
    1.4289    0.0000    0.0000 C   0  0  0  0  0  0  0  0  0  0  0  0
    2.1434   -0.4125    0.0000 C   0  0  0  0  0  0  0  0  0  0  0  0
    2.8579    0.0000    0.0000 C   0  0  0  0  0  0  0  0  0  0  0  0
    3.5724   -0.4125    0.0000 C   0  0  0  0  0  0  0  0  0  0  0  0
    3.5724   -1.2375    0.0000 N   0  0  0  0  0  0  0  0  0  0  0  0
    2.8579   -1.6500    0.0000 C   0  0  0  0  0  0  0  0  0  0  0  0
    2.8579   -2.4750    0.0000 N   0  0  0  0  0  0  0  0  0  0  0  0
    3.5724   -2.8875    0.0000 C   0  0  0  0  0  0  0  0  0  0  0  0
    3.5724   -3.7125    0.0000 C   0  0  0  0  0  0  0  0  0  0  0  0
    4.2868   -4.1250    0.0000 C   0  0  0  0  0  0  0  0  0  0  0  0
    2.8579   -4.1250    0.0000 C   0  0  0  0  0  0  0  0  0  0  0  0
    2.1434   -1.2375    0.0000 C   0  0  0  0  0  0  0  0  0  0  0  0
    1.4289   -1.6500    0.0000 N   0  0  0  0  0  0  0  0  0  0  0  0
   -0.0000   -4.9500    0.0000 C   0  0  0  0  0  0  0  0  0  0  0  0
    0.6674   -5.4349    0.0000 C   0  0  0  0  0  0  0  0  0  0  0  0
    0.4125   -6.2195    0.0000 N   0  0  0  0  0  0  0  0  0  0  0  0
   -0.4125   -6.2195    0.0000 N   0  0  0  0  0  0  0  0  0  0  0  0
   -0.8974   -6.8870    0.0000 C   0  0  0  0  0  0  0  0  0  0  0  0
   -0.6674   -5.4349    0.0000 C   0  0  0  0  0  0  0  0  0  0  0  0
  1  2  1  0  0  0  0
  2  3  1  0  0  0  0
  3  4  4  0  0  0  0
  4  5  4  0  0  0  0
  5  6  4  0  0  0  0
  6  7  4  0  0  0  0
  7  8  4  0  0  0  0
  3  8  4  0  0  0  0
  8  9  1  0  0  0  0
  9 10  1  0  0  0  0
 10 11  4  0  0  0  0
 11 12  4  0  0  0  0
 12 13  4  0  0  0  0
 13 14  4  0  0  0  0
 14 15  4  0  0  0  0
 15 16  4  0  0  0  0
 16 17  4  0  0  0  0
 17 18  1  0  0  0  0
 18 19  1  0  0  0  0
 19 20  1  0  0  0  0
 20 21  1  0  0  0  0
 20 22  1  0  0  0  0
 17 23  4  0  0  0  0
 13 23  4  0  0  0  0
 23 24  4  0  0  0  0
 10 24  4  0  0  0  0
  5 25  1  0  0  0  0
 25 26  4  0  0  0  0
 26 27  4  0  0  0  0
 27 28  4  0  0  0  0
 28 29  1  0  0  0  0
 28 30  4  0  0  0  0
 25 30  4  0  0  0  0
M  END
> <BindingDB_ID/CHEMBL_ID>
241223

> <pKi>
6.4

> <Target Name>
Cyclin-A2/Cyclin-dependent kinase 2

> <Target Source Organism>
Homo sapiens

> <Target Uniprot>
P24941

> <Article DOI>
10.1021/acs.jmedchem.5b01811

$$$$

  Mrv2316 09262419122D          

 31 34  0  0  0  0            999 V2000
    2.1434   -2.8875    0.0000 C   0  0  0  0  0  0  0  0  0  0  0  0
    1.4289   -2.4750    0.0000 O   0  0  0  0  0  0  0  0  0  0  0  0
    0.7145   -2.8875    0.0000 C   0  0  0  0  0  0  0  0  0  0  0  0
    0.7145   -3.7125    0.0000 C   0  0  0  0  0  0  0  0  0  0  0  0
    0.0000   -4.1250    0.0000 C   0  0  0  0  0  0  0  0  0  0  0  0
   -0.7145   -3.7125    0.0000 C   0  0  0  0  0  0  0  0  0  0  0  0
   -0.7145   -2.8875    0.0000 C   0  0  0  0  0  0  0  0  0  0  0  0
    0.0000   -2.4750    0.0000 C   0  0  0  0  0  0  0  0  0  0  0  0
    0.0000   -1.6500    0.0000 N   0  0  0  0  0  0  0  0  0  0  0  0
    0.7145   -1.2375    0.0000 C   0  0  0  0  0  0  0  0  0  0  0  0
    0.7145   -0.4125    0.0000 N   0  0  0  0  0  0  0  0  0  0  0  0
    1.4289    0.0000    0.0000 C   0  0  0  0  0  0  0  0  0  0  0  0
    2.1434   -0.4125    0.0000 C   0  0  0  0  0  0  0  0  0  0  0  0
    2.8579    0.0000    0.0000 C   0  0  0  0  0  0  0  0  0  0  0  0
    3.5724   -0.4125    0.0000 C   0  0  0  0  0  0  0  0  0  0  0  0
    3.5724   -1.2375    0.0000 N   0  0  0  0  0  0  0  0  0  0  0  0
    2.8579   -1.6500    0.0000 C   0  0  0  0  0  0  0  0  0  0  0  0
    2.8579   -2.4750    0.0000 N   0  0  0  0  0  0  0  0  0  0  0  0
    3.5724   -2.8875    0.0000 C   0  0  0  0  0  0  0  0  0  0  0  0
    3.5724   -3.7125    0.0000 C   0  0  0  0  0  0  0  0  0  0  0  0
    3.5724   -4.5375    0.0000 C   0  0  0  0  0  0  0  0  0  0  0  0
    4.3974   -3.7125    0.0000 C   0  0  0  0  0  0  0  0  0  0  0  0
    2.7474   -3.7125    0.0000 C   0  0  0  0  0  0  0  0  0  0  0  0
    2.1434   -1.2375    0.0000 C   0  0  0  0  0  0  0  0  0  0  0  0
    1.4289   -1.6500    0.0000 N   0  0  0  0  0  0  0  0  0  0  0  0
   -0.0000   -4.9500    0.0000 C   0  0  0  0  0  0  0  0  0  0  0  0
    0.6674   -5.4349    0.0000 C   0  0  0  0  0  0  0  0  0  0  0  0
    0.4125   -6.2195    0.0000 N   0  0  0  0  0  0  0  0  0  0  0  0
   -0.4125   -6.2195    0.0000 N   0  0  0  0  0  0  0  0  0  0  0  0
   -0.8974   -6.8870    0.0000 C   0  0  0  0  0  0  0  0  0  0  0  0
   -0.6674   -5.4349    0.0000 C   0  0  0  0  0  0  0  0  0  0  0  0
  1  2  1  0  0  0  0
  2  3  1  0  0  0  0
  3  4  4  0  0  0  0
  4  5  4  0  0  0  0
  5  6  4  0  0  0  0
  6  7  4  0  0  0  0
  7  8  4  0  0  0  0
  3  8  4  0  0  0  0
  8  9  1  0  0  0  0
  9 10  1  0  0  0  0
 10 11  4  0  0  0  0
 11 12  4  0  0  0  0
 12 13  4  0  0  0  0
 13 14  4  0  0  0  0
 14 15  4  0  0  0  0
 15 16  4  0  0  0  0
 16 17  4  0  0  0  0
 17 18  1  0  0  0  0
 18 19  1  0  0  0  0
 19 20  1  0  0  0  0
 20 21  1  0  0  0  0
 20 22  1  0  0  0  0
 20 23  1  0  0  0  0
 17 24  4  0  0  0  0
 13 24  4  0  0  0  0
 24 25  4  0  0  0  0
 10 25  4  0  0  0  0
  5 26  1  0  0  0  0
 26 27  4  0  0  0  0
 27 28  4  0  0  0  0
 28 29  4  0  0  0  0
 29 30  1  0  0  0  0
 29 31  4  0  0  0  0
 26 31  4  0  0  0  0
M  END
> <BindingDB_ID/CHEMBL_ID>
241226

> <pKi>
6.6

> <Target Name>
Cyclin-A2/Cyclin-dependent kinase 2

> <Target Source Organism>
Homo sapiens

> <Target Uniprot>
P24941

> <Article DOI>
10.1021/acs.jmedchem.8b00690

$$$$

  Mrv2316 09262419122D          

 32 35  0  0  1  0            999 V2000
    2.1434   -2.8875    0.0000 C   0  0  0  0  0  0  0  0  0  0  0  0
    1.4289   -2.4750    0.0000 O   0  0  0  0  0  0  0  0  0  0  0  0
    0.7145   -2.8875    0.0000 C   0  0  0  0  0  0  0  0  0  0  0  0
    0.7145   -3.7125    0.0000 C   0  0  0  0  0  0  0  0  0  0  0  0
    0.0000   -4.1250    0.0000 C   0  0  0  0  0  0  0  0  0  0  0  0
   -0.7145   -3.7125    0.0000 C   0  0  0  0  0  0  0  0  0  0  0  0
   -0.7145   -2.8875    0.0000 C   0  0  0  0  0  0  0  0  0  0  0  0
    0.0000   -2.4750    0.0000 C   0  0  0  0  0  0  0  0  0  0  0  0
    0.0000   -1.6500    0.0000 N   0  0  0  0  0  0  0  0  0  0  0  0
    0.7145   -1.2375    0.0000 C   0  0  0  0  0  0  0  0  0  0  0  0
    0.7145   -0.4125    0.0000 N   0  0  0  0  0  0  0  0  0  0  0  0
    1.4289    0.0000    0.0000 C   0  0  0  0  0  0  0  0  0  0  0  0
    2.1434   -0.4125    0.0000 C   0  0  0  0  0  0  0  0  0  0  0  0
    2.8579    0.0000    0.0000 C   0  0  0  0  0  0  0  0  0  0  0  0
    3.5724   -0.4125    0.0000 C   0  0  0  0  0  0  0  0  0  0  0  0
    3.5724   -1.2375    0.0000 N   0  0  0  0  0  0  0  0  0  0  0  0
    2.8579   -1.6500    0.0000 C   0  0  0  0  0  0  0  0  0  0  0  0
    2.8579   -2.4750    0.0000 N   0  0  0  0  0  0  0  0  0  0  0  0
    3.5724   -2.8875    0.0000 C   0  0  2  0  0  0  0  0  0  0  0  0
    4.2868   -2.4750    0.0000 C   0  0  0  0  0  0  0  0  0  0  0  0
    3.5724   -3.7125    0.0000 C   0  0  0  0  0  0  0  0  0  0  0  0
    3.5724   -4.5375    0.0000 C   0  0  0  0  0  0  0  0  0  0  0  0
    4.3974   -3.7125    0.0000 C   0  0  0  0  0  0  0  0  0  0  0  0
    2.7474   -3.7125    0.0000 C   0  0  0  0  0  0  0  0  0  0  0  0
    2.1434   -1.2375    0.0000 C   0  0  0  0  0  0  0  0  0  0  0  0
    1.4289   -1.6500    0.0000 N   0  0  0  0  0  0  0  0  0  0  0  0
   -0.0000   -4.9500    0.0000 C   0  0  0  0  0  0  0  0  0  0  0  0
    0.6674   -5.4349    0.0000 C   0  0  0  0  0  0  0  0  0  0  0  0
    0.4125   -6.2195    0.0000 N   0  0  0  0  0  0  0  0  0  0  0  0
   -0.4125   -6.2195    0.0000 N   0  0  0  0  0  0  0  0  0  0  0  0
   -0.8974   -6.8870    0.0000 C   0  0  0  0  0  0  0  0  0  0  0  0
   -0.6674   -5.4349    0.0000 C   0  0  0  0  0  0  0  0  0  0  0  0
  1  2  1  0  0  0  0
  2  3  1  0  0  0  0
  3  4  4  0  0  0  0
  4  5  4  0  0  0  0
  5  6  4  0  0  0  0
  6  7  4  0  0  0  0
  7  8  4  0  0  0  0
  3  8  4  0  0  0  0
  8  9  1  0  0  0  0
  9 10  1  0  0  0  0
 10 11  4  0  0  0  0
 11 12  4  0  0  0  0
 12 13  4  0  0  0  0
 13 14  4  0  0  0  0
 14 15  4  0  0  0  0
 15 16  4  0  0  0  0
 16 17  4  0  0  0  0
 17 18  1  0  0  0  0
 19 18  1  0  0  0  0
 19 20  1  6  0  0  0
 19 21  1  0  0  0  0
 21 22  1  0  0  0  0
 21 23  1  0  0  0  0
 21 24  1  0  0  0  0
 17 25  4  0  0  0  0
 13 25  4  0  0  0  0
 25 26  4  0  0  0  0
 10 26  4  0  0  0  0
  5 27  1  0  0  0  0
 27 28  4  0  0  0  0
 28 29  4  0  0  0  0
 29 30  4  0  0  0  0
 30 31  1  0  0  0  0
 30 32  4  0  0  0  0
 27 32  4  0  0  0  0
M  END
> <BindingDB_ID/CHEMBL_ID>
241234

> <pKi>
6.6

> <Target Name>
Cyclin-A2/Cyclin-dependent kinase 2

> <Target Source Organism>
Homo sapiens

> <Target Uniprot>
P24941

> <Article DOI>
10.1021/acs.jmedchem.5b01811

$$$$

  Mrv2316 09262419122D          

 32 35  0  0  1  0            999 V2000
    2.1434   -2.8875    0.0000 C   0  0  0  0  0  0  0  0  0  0  0  0
    1.4289   -2.4750    0.0000 O   0  0  0  0  0  0  0  0  0  0  0  0
    0.7145   -2.8875    0.0000 C   0  0  0  0  0  0  0  0  0  0  0  0
    0.7145   -3.7125    0.0000 C   0  0  0  0  0  0  0  0  0  0  0  0
    0.0000   -4.1250    0.0000 C   0  0  0  0  0  0  0  0  0  0  0  0
   -0.7145   -3.7125    0.0000 C   0  0  0  0  0  0  0  0  0  0  0  0
   -0.7145   -2.8875    0.0000 C   0  0  0  0  0  0  0  0  0  0  0  0
    0.0000   -2.4750    0.0000 C   0  0  0  0  0  0  0  0  0  0  0  0
    0.0000   -1.6500    0.0000 N   0  0  0  0  0  0  0  0  0  0  0  0
    0.7145   -1.2375    0.0000 C   0  0  0  0  0  0  0  0  0  0  0  0
    0.7145   -0.4125    0.0000 N   0  0  0  0  0  0  0  0  0  0  0  0
    1.4289    0.0000    0.0000 C   0  0  0  0  0  0  0  0  0  0  0  0
    2.1434   -0.4125    0.0000 C   0  0  0  0  0  0  0  0  0  0  0  0
    2.8579    0.0000    0.0000 C   0  0  0  0  0  0  0  0  0  0  0  0
    3.5724   -0.4125    0.0000 C   0  0  0  0  0  0  0  0  0  0  0  0
    3.5724   -1.2375    0.0000 N   0  0  0  0  0  0  0  0  0  0  0  0
    2.8579   -1.6500    0.0000 C   0  0  0  0  0  0  0  0  0  0  0  0
    2.8579   -2.4750    0.0000 N   0  0  0  0  0  0  0  0  0  0  0  0
    3.5724   -2.8875    0.0000 C   0  0  1  0  0  0  0  0  0  0  0  0
    4.2868   -2.4750    0.0000 C   0  0  0  0  0  0  0  0  0  0  0  0
    3.5724   -3.7125    0.0000 C   0  0  0  0  0  0  0  0  0  0  0  0
    3.5724   -4.5375    0.0000 C   0  0  0  0  0  0  0  0  0  0  0  0
    4.3974   -3.7125    0.0000 C   0  0  0  0  0  0  0  0  0  0  0  0
    2.7474   -3.7125    0.0000 C   0  0  0  0  0  0  0  0  0  0  0  0
    2.1434   -1.2375    0.0000 C   0  0  0  0  0  0  0  0  0  0  0  0
    1.4289   -1.6500    0.0000 N   0  0  0  0  0  0  0  0  0  0  0  0
   -0.0000   -4.9500    0.0000 C   0  0  0  0  0  0  0  0  0  0  0  0
    0.6674   -5.4349    0.0000 C   0  0  0  0  0  0  0  0  0  0  0  0
    0.4125   -6.2195    0.0000 N   0  0  0  0  0  0  0  0  0  0  0  0
   -0.4125   -6.2195    0.0000 N   0  0  0  0  0  0  0  0  0  0  0  0
   -0.8974   -6.8870    0.0000 C   0  0  0  0  0  0  0  0  0  0  0  0
   -0.6674   -5.4349    0.0000 C   0  0  0  0  0  0  0  0  0  0  0  0
  1  2  1  0  0  0  0
  2  3  1  0  0  0  0
  3  4  4  0  0  0  0
  4  5  4  0  0  0  0
  5  6  4  0  0  0  0
  6  7  4  0  0  0  0
  7  8  4  0  0  0  0
  3  8  4  0  0  0  0
  8  9  1  0  0  0  0
  9 10  1  0  0  0  0
 10 11  4  0  0  0  0
 11 12  4  0  0  0  0
 12 13  4  0  0  0  0
 13 14  4  0  0  0  0
 14 15  4  0  0  0  0
 15 16  4  0  0  0  0
 16 17  4  0  0  0  0
 17 18  1  0  0  0  0
 19 18  1  0  0  0  0
 19 20  1  1  0  0  0
 19 21  1  0  0  0  0
 21 22  1  0  0  0  0
 21 23  1  0  0  0  0
 21 24  1  0  0  0  0
 17 25  4  0  0  0  0
 13 25  4  0  0  0  0
 25 26  4  0  0  0  0
 10 26  4  0  0  0  0
  5 27  1  0  0  0  0
 27 28  4  0  0  0  0
 28 29  4  0  0  0  0
 29 30  4  0  0  0  0
 30 31  1  0  0  0  0
 30 32  4  0  0  0  0
 27 32  4  0  0  0  0
M  END
> <BindingDB_ID/CHEMBL_ID>
241235

> <pKi>
6.6

> <Target Name>
Cyclin-A2/Cyclin-dependent kinase 2

> <Target Source Organism>
Homo sapiens

> <Target Uniprot>
P24941

> <Article DOI>
10.1021/acs.jmedchem.5b01811

$$$$

  Mrv2316 09262419122D          

 31 34  0  0  0  0            999 V2000
    2.1434   -2.8875    0.0000 C   0  0  0  0  0  0  0  0  0  0  0  0
    1.4289   -2.4750    0.0000 O   0  0  0  0  0  0  0  0  0  0  0  0
    0.7145   -2.8875    0.0000 C   0  0  0  0  0  0  0  0  0  0  0  0
    0.7145   -3.7125    0.0000 C   0  0  0  0  0  0  0  0  0  0  0  0
    0.0000   -4.1250    0.0000 C   0  0  0  0  0  0  0  0  0  0  0  0
   -0.7145   -3.7125    0.0000 C   0  0  0  0  0  0  0  0  0  0  0  0
   -0.7145   -2.8875    0.0000 C   0  0  0  0  0  0  0  0  0  0  0  0
    0.0000   -2.4750    0.0000 C   0  0  0  0  0  0  0  0  0  0  0  0
    0.0000   -1.6500    0.0000 N   0  0  0  0  0  0  0  0  0  0  0  0
    0.7145   -1.2375    0.0000 C   0  0  0  0  0  0  0  0  0  0  0  0
    0.7145   -0.4125    0.0000 N   0  0  0  0  0  0  0  0  0  0  0  0
    1.4289    0.0000    0.0000 C   0  0  0  0  0  0  0  0  0  0  0  0
    2.1434   -0.4125    0.0000 C   0  0  0  0  0  0  0  0  0  0  0  0
    2.8579    0.0000    0.0000 C   0  0  0  0  0  0  0  0  0  0  0  0
    3.5724   -0.4125    0.0000 C   0  0  0  0  0  0  0  0  0  0  0  0
    3.5724   -1.2375    0.0000 N   0  0  0  0  0  0  0  0  0  0  0  0
    2.8579   -1.6500    0.0000 C   0  0  0  0  0  0  0  0  0  0  0  0
    2.8579   -2.4750    0.0000 N   0  0  0  0  0  0  0  0  0  0  0  0
    3.5724   -2.8875    0.0000 C   0  0  0  0  0  0  0  0  0  0  0  0
    3.5724   -3.7125    0.0000 C   0  0  0  0  0  0  0  0  0  0  0  0
    3.5724   -4.5375    0.0000 C   0  0  0  0  0  0  0  0  0  0  0  0
    4.3974   -3.7125    0.0000 C   0  0  0  0  0  0  0  0  0  0  0  0
    2.7474   -3.7125    0.0000 C   0  0  0  0  0  0  0  0  0  0  0  0
    2.1434   -1.2375    0.0000 C   0  0  0  0  0  0  0  0  0  0  0  0
    1.4289   -1.6500    0.0000 N   0  0  0  0  0  0  0  0  0  0  0  0
   -0.0000   -4.9500    0.0000 C   0  0  0  0  0  0  0  0  0  0  0  0
    0.6674   -5.4349    0.0000 N   0  0  0  0  0  0  0  0  0  0  0  0
    0.4125   -6.2195    0.0000 N   0  0  0  0  0  0  0  0  0  0  0  0
   -0.4125   -6.2195    0.0000 C   0  0  0  0  0  0  0  0  0  0  0  0
   -0.6674   -5.4349    0.0000 N   0  0  0  0  0  0  0  0  0  0  0  0
   -1.4521   -5.1800    0.0000 C   0  0  0  0  0  0  0  0  0  0  0  0
  1  2  1  0  0  0  0
  2  3  1  0  0  0  0
  3  4  4  0  0  0  0
  4  5  4  0  0  0  0
  5  6  4  0  0  0  0
  6  7  4  0  0  0  0
  7  8  4  0  0  0  0
  3  8  4  0  0  0  0
  8  9  1  0  0  0  0
  9 10  1  0  0  0  0
 10 11  4  0  0  0  0
 11 12  4  0  0  0  0
 12 13  4  0  0  0  0
 13 14  4  0  0  0  0
 14 15  4  0  0  0  0
 15 16  4  0  0  0  0
 16 17  4  0  0  0  0
 17 18  1  0  0  0  0
 18 19  1  0  0  0  0
 19 20  1  0  0  0  0
 20 21  1  0  0  0  0
 20 22  1  0  0  0  0
 20 23  1  0  0  0  0
 17 24  4  0  0  0  0
 13 24  4  0  0  0  0
 24 25  4  0  0  0  0
 10 25  4  0  0  0  0
  5 26  1  0  0  0  0
 26 27  4  0  0  0  0
 27 28  4  0  0  0  0
 28 29  4  0  0  0  0
 29 30  4  0  0  0  0
 26 30  4  0  0  0  0
 30 31  1  0  0  0  0
M  END
> <BindingDB_ID/CHEMBL_ID>
241331

> <pKi>
8.1

> <Target Name>
Cyclin-A2/Cyclin-dependent kinase 2

> <Target Source Organism>
Homo sapiens

> <Target Uniprot>
P24941

> <Article DOI>
10.1021/acs.jmedchem.8b00690

$$$$

  Mrv2316 09262419122D          

 33 36  0  0  0  0            999 V2000
    2.1434   -2.8875    0.0000 C   0  0  0  0  0  0  0  0  0  0  0  0
    1.4289   -2.4750    0.0000 O   0  0  0  0  0  0  0  0  0  0  0  0
    0.7145   -2.8875    0.0000 C   0  0  0  0  0  0  0  0  0  0  0  0
    0.7145   -3.7125    0.0000 C   0  0  0  0  0  0  0  0  0  0  0  0
    0.0000   -4.1250    0.0000 C   0  0  0  0  0  0  0  0  0  0  0  0
   -0.7145   -3.7125    0.0000 C   0  0  0  0  0  0  0  0  0  0  0  0
   -0.7145   -2.8875    0.0000 C   0  0  0  0  0  0  0  0  0  0  0  0
    0.0000   -2.4750    0.0000 C   0  0  0  0  0  0  0  0  0  0  0  0
    0.0000   -1.6500    0.0000 N   0  0  0  0  0  0  0  0  0  0  0  0
    0.7145   -1.2375    0.0000 C   0  0  0  0  0  0  0  0  0  0  0  0
    0.7145   -0.4125    0.0000 N   0  0  0  0  0  0  0  0  0  0  0  0
    1.4289    0.0000    0.0000 C   0  0  0  0  0  0  0  0  0  0  0  0
    2.1434   -0.4125    0.0000 C   0  0  0  0  0  0  0  0  0  0  0  0
    2.8579    0.0000    0.0000 C   0  0  0  0  0  0  0  0  0  0  0  0
    3.5724   -0.4125    0.0000 C   0  0  0  0  0  0  0  0  0  0  0  0
    4.2868   -0.0000    0.0000 C   0  0  0  0  0  0  0  0  0  0  0  0
    3.5724   -1.2375    0.0000 N   0  0  0  0  0  0  0  0  0  0  0  0
    2.8579   -1.6500    0.0000 C   0  0  0  0  0  0  0  0  0  0  0  0
    2.8579   -2.4750    0.0000 N   0  0  0  0  0  0  0  0  0  0  0  0
    3.5724   -2.8875    0.0000 C   0  0  0  0  0  0  0  0  0  0  0  0
    3.5724   -3.7125    0.0000 C   0  0  0  0  0  0  0  0  0  0  0  0
    3.5724   -4.5375    0.0000 C   0  0  0  0  0  0  0  0  0  0  0  0
    4.3974   -3.7125    0.0000 C   0  0  0  0  0  0  0  0  0  0  0  0
    2.7474   -3.7125    0.0000 C   0  0  0  0  0  0  0  0  0  0  0  0
    2.1434   -1.2375    0.0000 C   0  0  0  0  0  0  0  0  0  0  0  0
    1.4289   -1.6500    0.0000 N   0  0  0  0  0  0  0  0  0  0  0  0
   -0.0000   -4.9500    0.0000 C   0  0  0  0  0  0  0  0  0  0  0  0
    0.6674   -5.4349    0.0000 C   0  0  0  0  0  0  0  0  0  0  0  0
    0.4125   -6.2195    0.0000 N   0  0  0  0  0  0  0  0  0  0  0  0
   -0.4125   -6.2195    0.0000 C   0  0  0  0  0  0  0  0  0  0  0  0
   -0.8974   -6.8870    0.0000 C   0  0  0  0  0  0  0  0  0  0  0  0
   -0.6674   -5.4349    0.0000 N   0  0  0  0  0  0  0  0  0  0  0  0
   -1.4521   -5.1800    0.0000 C   0  0  0  0  0  0  0  0  0  0  0  0
  1  2  1  0  0  0  0
  2  3  1  0  0  0  0
  3  4  4  0  0  0  0
  4  5  4  0  0  0  0
  5  6  4  0  0  0  0
  6  7  4  0  0  0  0
  7  8  4  0  0  0  0
  3  8  4  0  0  0  0
  8  9  1  0  0  0  0
  9 10  1  0  0  0  0
 10 11  4  0  0  0  0
 11 12  4  0  0  0  0
 12 13  4  0  0  0  0
 13 14  4  0  0  0  0
 14 15  4  0  0  0  0
 15 16  1  0  0  0  0
 15 17  4  0  0  0  0
 17 18  4  0  0  0  0
 18 19  1  0  0  0  0
 19 20  1  0  0  0  0
 20 21  1  0  0  0  0
 21 22  1  0  0  0  0
 21 23  1  0  0  0  0
 21 24  1  0  0  0  0
 18 25  4  0  0  0  0
 13 25  4  0  0  0  0
 25 26  4  0  0  0  0
 10 26  4  0  0  0  0
  5 27  1  0  0  0  0
 27 28  4  0  0  0  0
 28 29  4  0  0  0  0
 29 30  4  0  0  0  0
 30 31  1  0  0  0  0
 30 32  4  0  0  0  0
 27 32  4  0  0  0  0
 32 33  1  0  0  0  0
M  END
> <BindingDB_ID/CHEMBL_ID>
241333

> <pKi>
6.1

> <Target Name>
Cyclin-A2/Cyclin-dependent kinase 2

> <Target Source Organism>
Homo sapiens

> <Target Uniprot>
P24941

> <Article DOI>
10.1021/acs.jmedchem.8b00690

$$$$

  Mrv2316 09262419122D          

 32 35  0  0  0  0            999 V2000
    2.1434   -2.8875    0.0000 C   0  0  0  0  0  0  0  0  0  0  0  0
    1.4289   -2.4750    0.0000 O   0  0  0  0  0  0  0  0  0  0  0  0
    0.7145   -2.8875    0.0000 C   0  0  0  0  0  0  0  0  0  0  0  0
    0.7145   -3.7125    0.0000 C   0  0  0  0  0  0  0  0  0  0  0  0
    0.0000   -4.1250    0.0000 C   0  0  0  0  0  0  0  0  0  0  0  0
   -0.7145   -3.7125    0.0000 C   0  0  0  0  0  0  0  0  0  0  0  0
   -0.7145   -2.8875    0.0000 C   0  0  0  0  0  0  0  0  0  0  0  0
    0.0000   -2.4750    0.0000 C   0  0  0  0  0  0  0  0  0  0  0  0
    0.0000   -1.6500    0.0000 N   0  0  0  0  0  0  0  0  0  0  0  0
    0.7145   -1.2375    0.0000 C   0  0  0  0  0  0  0  0  0  0  0  0
    0.7145   -0.4125    0.0000 N   0  0  0  0  0  0  0  0  0  0  0  0
    1.4289    0.0000    0.0000 C   0  0  0  0  0  0  0  0  0  0  0  0
    2.1434   -0.4125    0.0000 C   0  0  0  0  0  0  0  0  0  0  0  0
    2.8579    0.0000    0.0000 C   0  0  0  0  0  0  0  0  0  0  0  0
    3.5724   -0.4125    0.0000 C   0  0  0  0  0  0  0  0  0  0  0  0
    4.2868   -0.0000    0.0000 C   0  0  0  0  0  0  0  0  0  0  0  0
    3.5724   -1.2375    0.0000 N   0  0  0  0  0  0  0  0  0  0  0  0
    2.8579   -1.6500    0.0000 C   0  0  0  0  0  0  0  0  0  0  0  0
    2.8579   -2.4750    0.0000 N   0  0  0  0  0  0  0  0  0  0  0  0
    3.5724   -2.8875    0.0000 C   0  0  0  0  0  0  0  0  0  0  0  0
    3.5724   -3.7125    0.0000 C   0  0  0  0  0  0  0  0  0  0  0  0
    3.5724   -4.5375    0.0000 C   0  0  0  0  0  0  0  0  0  0  0  0
    4.3974   -3.7125    0.0000 C   0  0  0  0  0  0  0  0  0  0  0  0
    2.7474   -3.7125    0.0000 C   0  0  0  0  0  0  0  0  0  0  0  0
    2.1434   -1.2375    0.0000 C   0  0  0  0  0  0  0  0  0  0  0  0
    1.4289   -1.6500    0.0000 N   0  0  0  0  0  0  0  0  0  0  0  0
   -0.0000   -4.9500    0.0000 C   0  0  0  0  0  0  0  0  0  0  0  0
    0.6674   -5.4349    0.0000 N   0  0  0  0  0  0  0  0  0  0  0  0
    0.4125   -6.2195    0.0000 N   0  0  0  0  0  0  0  0  0  0  0  0
   -0.4125   -6.2195    0.0000 C   0  0  0  0  0  0  0  0  0  0  0  0
   -0.6674   -5.4349    0.0000 N   0  0  0  0  0  0  0  0  0  0  0  0
   -1.4521   -5.1800    0.0000 C   0  0  0  0  0  0  0  0  0  0  0  0
  1  2  1  0  0  0  0
  2  3  1  0  0  0  0
  3  4  4  0  0  0  0
  4  5  4  0  0  0  0
  5  6  4  0  0  0  0
  6  7  4  0  0  0  0
  7  8  4  0  0  0  0
  3  8  4  0  0  0  0
  8  9  1  0  0  0  0
  9 10  1  0  0  0  0
 10 11  4  0  0  0  0
 11 12  4  0  0  0  0
 12 13  4  0  0  0  0
 13 14  4  0  0  0  0
 14 15  4  0  0  0  0
 15 16  1  0  0  0  0
 15 17  4  0  0  0  0
 17 18  4  0  0  0  0
 18 19  1  0  0  0  0
 19 20  1  0  0  0  0
 20 21  1  0  0  0  0
 21 22  1  0  0  0  0
 21 23  1  0  0  0  0
 21 24  1  0  0  0  0
 18 25  4  0  0  0  0
 13 25  4  0  0  0  0
 25 26  4  0  0  0  0
 10 26  4  0  0  0  0
  5 27  1  0  0  0  0
 27 28  4  0  0  0  0
 28 29  4  0  0  0  0
 29 30  4  0  0  0  0
 30 31  4  0  0  0  0
 27 31  4  0  0  0  0
 31 32  1  0  0  0  0
M  END
> <BindingDB_ID/CHEMBL_ID>
241335

> <pKi>
7.2

> <Target Name>
Cyclin-A2/Cyclin-dependent kinase 2

> <Target Source Organism>
Homo sapiens

> <Target Uniprot>
P24941

> <Article DOI>
10.1021/acs.jmedchem.8b00690

$$$$

  Mrv2316 09262419122D          

 33 36  0  0  0  0            999 V2000
    2.1434   -3.7125    0.0000 C   0  0  0  0  0  0  0  0  0  0  0  0
    2.1434   -2.8875    0.0000 C   0  0  0  0  0  0  0  0  0  0  0  0
    1.4289   -2.4750    0.0000 O   0  0  0  0  0  0  0  0  0  0  0  0
    0.7145   -2.8875    0.0000 C   0  0  0  0  0  0  0  0  0  0  0  0
    0.7145   -3.7125    0.0000 C   0  0  0  0  0  0  0  0  0  0  0  0
    0.0000   -4.1250    0.0000 C   0  0  0  0  0  0  0  0  0  0  0  0
   -0.7145   -3.7125    0.0000 C   0  0  0  0  0  0  0  0  0  0  0  0
   -0.7145   -2.8875    0.0000 C   0  0  0  0  0  0  0  0  0  0  0  0
    0.0000   -2.4750    0.0000 C   0  0  0  0  0  0  0  0  0  0  0  0
    0.0000   -1.6500    0.0000 N   0  0  0  0  0  0  0  0  0  0  0  0
    0.7145   -1.2375    0.0000 C   0  0  0  0  0  0  0  0  0  0  0  0
    0.7145   -0.4125    0.0000 N   0  0  0  0  0  0  0  0  0  0  0  0
    1.4289    0.0000    0.0000 C   0  0  0  0  0  0  0  0  0  0  0  0
    2.1434   -0.4125    0.0000 C   0  0  0  0  0  0  0  0  0  0  0  0
    2.8579    0.0000    0.0000 C   0  0  0  0  0  0  0  0  0  0  0  0
    3.5724   -0.4125    0.0000 C   0  0  0  0  0  0  0  0  0  0  0  0
    4.2868   -0.0000    0.0000 C   0  0  0  0  0  0  0  0  0  0  0  0
    3.5724   -1.2375    0.0000 N   0  0  0  0  0  0  0  0  0  0  0  0
    2.8579   -1.6500    0.0000 C   0  0  0  0  0  0  0  0  0  0  0  0
    2.8579   -2.4750    0.0000 N   0  0  0  0  0  0  0  0  0  0  0  0
    3.5724   -2.8875    0.0000 C   0  0  0  0  0  0  0  0  0  0  0  0
    3.5724   -3.7125    0.0000 C   0  0  0  0  0  0  0  0  0  0  0  0
    3.5724   -4.5375    0.0000 C   0  0  0  0  0  0  0  0  0  0  0  0
    4.3974   -3.7125    0.0000 C   0  0  0  0  0  0  0  0  0  0  0  0
    2.7474   -3.7125    0.0000 C   0  0  0  0  0  0  0  0  0  0  0  0
    2.1434   -1.2375    0.0000 C   0  0  0  0  0  0  0  0  0  0  0  0
    1.4289   -1.6500    0.0000 N   0  0  0  0  0  0  0  0  0  0  0  0
   -0.0000   -4.9500    0.0000 C   0  0  0  0  0  0  0  0  0  0  0  0
   -0.6674   -5.4349    0.0000 N   0  0  0  0  0  0  0  0  0  0  0  0
   -0.4125   -6.2195    0.0000 N   0  0  0  0  0  0  0  0  0  0  0  0
    0.4125   -6.2195    0.0000 C   0  0  0  0  0  0  0  0  0  0  0  0
    0.6674   -5.4349    0.0000 N   0  0  0  0  0  0  0  0  0  0  0  0
    1.4521   -5.1800    0.0000 C   0  0  0  0  0  0  0  0  0  0  0  0
  1  2  1  0  0  0  0
  2  3  1  0  0  0  0
  3  4  1  0  0  0  0
  4  5  4  0  0  0  0
  5  6  4  0  0  0  0
  6  7  4  0  0  0  0
  7  8  4  0  0  0  0
  8  9  4  0  0  0  0
  4  9  4  0  0  0  0
  9 10  1  0  0  0  0
 10 11  1  0  0  0  0
 11 12  4  0  0  0  0
 12 13  4  0  0  0  0
 13 14  4  0  0  0  0
 14 15  4  0  0  0  0
 15 16  4  0  0  0  0
 16 17  1  0  0  0  0
 16 18  4  0  0  0  0
 18 19  4  0  0  0  0
 19 20  1  0  0  0  0
 20 21  1  0  0  0  0
 21 22  1  0  0  0  0
 22 23  1  0  0  0  0
 22 24  1  0  0  0  0
 22 25  1  0  0  0  0
 19 26  4  0  0  0  0
 14 26  4  0  0  0  0
 26 27  4  0  0  0  0
 11 27  4  0  0  0  0
  6 28  1  0  0  0  0
 28 29  4  0  0  0  0
 29 30  4  0  0  0  0
 30 31  4  0  0  0  0
 31 32  4  0  0  0  0
 28 32  4  0  0  0  0
 32 33  1  0  0  0  0
M  END
> <BindingDB_ID/CHEMBL_ID>
241338

> <pKi>
6.3

> <Target Name>
Cyclin-A2/Cyclin-dependent kinase 2

> <Target Source Organism>
Homo sapiens

> <Target Uniprot>
P24941

> <Article DOI>
10.1021/acs.jmedchem.8b00690

$$$$

  Mrv2316 09262419122D          

 34 38  0  0  0  0            999 V2000
   -2.8579   -2.4750    0.0000 C   0  0  0  0  0  0  0  0  0  0  0  0
   -2.1434   -2.8875    0.0000 C   0  0  0  0  0  0  0  0  0  0  0  0
   -1.4289   -2.4750    0.0000 O   0  0  0  0  0  0  0  0  0  0  0  0
   -0.7145   -2.8875    0.0000 C   0  0  0  0  0  0  0  0  0  0  0  0
   -0.7145   -3.7125    0.0000 C   0  0  0  0  0  0  0  0  0  0  0  0
    0.0000   -4.1250    0.0000 C   0  0  0  0  0  0  0  0  0  0  0  0
    0.7145   -3.7125    0.0000 C   0  0  0  0  0  0  0  0  0  0  0  0
    0.7145   -2.8875    0.0000 C   0  0  0  0  0  0  0  0  0  0  0  0
    0.0000   -2.4750    0.0000 C   0  0  0  0  0  0  0  0  0  0  0  0
    0.0000   -1.6500    0.0000 N   0  0  0  0  0  0  0  0  0  0  0  0
    0.7145   -1.2375    0.0000 C   0  0  0  0  0  0  0  0  0  0  0  0
    0.7145   -0.4125    0.0000 N   0  0  0  0  0  0  0  0  0  0  0  0
    1.4289    0.0000    0.0000 C   0  0  0  0  0  0  0  0  0  0  0  0
    2.1434   -0.4125    0.0000 C   0  0  0  0  0  0  0  0  0  0  0  0
    2.8579    0.0000    0.0000 C   0  0  0  0  0  0  0  0  0  0  0  0
    3.5724   -0.4125    0.0000 C   0  0  0  0  0  0  0  0  0  0  0  0
    4.2868   -0.0000    0.0000 C   0  0  0  0  0  0  0  0  0  0  0  0
    3.5724   -1.2375    0.0000 N   0  0  0  0  0  0  0  0  0  0  0  0
    2.8579   -1.6500    0.0000 C   0  0  0  0  0  0  0  0  0  0  0  0
    2.8579   -2.4750    0.0000 N   0  0  0  0  0  0  0  0  0  0  0  0
    3.4412   -3.0584    0.0000 C   0  0  0  0  0  0  0  0  0  0  0  0
    2.8579   -3.6417    0.0000 C   0  0  0  0  0  0  0  0  0  0  0  0
    3.4412   -4.2251    0.0000 C   0  0  0  0  0  0  0  0  0  0  0  0
    2.2745   -3.0584    0.0000 C   0  0  0  0  0  0  0  0  0  0  0  0
    2.2745   -4.2251    0.0000 C   0  0  0  0  0  0  0  0  0  0  0  0
    1.6912   -4.8085    0.0000 N   0  0  0  0  0  0  0  0  0  0  0  0
    2.1434   -1.2375    0.0000 C   0  0  0  0  0  0  0  0  0  0  0  0
    1.4289   -1.6500    0.0000 N   0  0  0  0  0  0  0  0  0  0  0  0
    0.0000   -4.9500    0.0000 C   0  0  0  0  0  0  0  0  0  0  0  0
   -0.6674   -5.4349    0.0000 N   0  0  0  0  0  0  0  0  0  0  0  0
   -0.4125   -6.2195    0.0000 N   0  0  0  0  0  0  0  0  0  0  0  0
    0.4125   -6.2195    0.0000 C   0  0  0  0  0  0  0  0  0  0  0  0
    0.6674   -5.4349    0.0000 N   0  0  0  0  0  0  0  0  0  0  0  0
    1.4521   -5.1800    0.0000 C   0  0  0  0  0  0  0  0  0  0  0  0
  1  2  1  0  0  0  0
  2  3  1  0  0  0  0
  3  4  1  0  0  0  0
  4  5  4  0  0  0  0
  5  6  4  0  0  0  0
  6  7  4  0  0  0  0
  7  8  4  0  0  0  0
  8  9  4  0  0  0  0
  4  9  4  0  0  0  0
  9 10  1  0  0  0  0
 10 11  1  0  0  0  0
 11 12  4  0  0  0  0
 12 13  4  0  0  0  0
 13 14  4  0  0  0  0
 14 15  4  0  0  0  0
 15 16  4  0  0  0  0
 16 17  1  0  0  0  0
 16 18  4  0  0  0  0
 18 19  4  0  0  0  0
 19 20  1  0  0  0  0
 20 21  1  0  0  0  0
 21 22  1  0  0  0  0
 22 23  1  0  0  0  0
 22 24  1  0  0  0  0
 20 24  1  0  0  0  0
 22 25  1  0  0  0  0
 25 26  3  0  0  0  0
 19 27  4  0  0  0  0
 14 27  4  0  0  0  0
 27 28  4  0  0  0  0
 11 28  4  0  0  0  0
  6 29  1  0  0  0  0
 29 30  4  0  0  0  0
 30 31  4  0  0  0  0
 31 32  4  0  0  0  0
 32 33  4  0  0  0  0
 29 33  4  0  0  0  0
 33 34  1  0  0  0  0
M  END
> <BindingDB_ID/CHEMBL_ID>
412610

> <pKi>
5.9

> <Target Name>
Cyclin-A2/Cyclin-dependent kinase 2

> <Target Source Organism>
Homo sapiens

> <Target Uniprot>
P24941

> <Article DOI>
10.1021/acs.jmedchem.8b00690

$$$$

  Mrv2316 09262419122D          

 36 41  0  0  0  0            999 V2000
   -2.8579   -2.4750    0.0000 C   0  0  0  0  0  0  0  0  0  0  0  0
   -2.1434   -2.8875    0.0000 C   0  0  0  0  0  0  0  0  0  0  0  0
   -1.4289   -2.4750    0.0000 O   0  0  0  0  0  0  0  0  0  0  0  0
   -0.7145   -2.8875    0.0000 C   0  0  0  0  0  0  0  0  0  0  0  0
   -0.7145   -3.7125    0.0000 C   0  0  0  0  0  0  0  0  0  0  0  0
    0.0000   -4.1250    0.0000 C   0  0  0  0  0  0  0  0  0  0  0  0
    0.7145   -3.7125    0.0000 C   0  0  0  0  0  0  0  0  0  0  0  0
    0.7145   -2.8875    0.0000 C   0  0  0  0  0  0  0  0  0  0  0  0
    0.0000   -2.4750    0.0000 C   0  0  0  0  0  0  0  0  0  0  0  0
    0.0000   -1.6500    0.0000 N   0  0  0  0  0  0  0  0  0  0  0  0
    0.7145   -1.2375    0.0000 C   0  0  0  0  0  0  0  0  0  0  0  0
    0.7145   -0.4125    0.0000 N   0  0  0  0  0  0  0  0  0  0  0  0
    1.4289    0.0000    0.0000 C   0  0  0  0  0  0  0  0  0  0  0  0
    2.1434   -0.4125    0.0000 C   0  0  0  0  0  0  0  0  0  0  0  0
    2.8579    0.0000    0.0000 C   0  0  0  0  0  0  0  0  0  0  0  0
    3.5724   -0.4125    0.0000 C   0  0  0  0  0  0  0  0  0  0  0  0
    4.2868   -0.0000    0.0000 C   0  0  0  0  0  0  0  0  0  0  0  0
    3.5724   -1.2375    0.0000 N   0  0  0  0  0  0  0  0  0  0  0  0
    2.8579   -1.6500    0.0000 C   0  0  0  0  0  0  0  0  0  0  0  0
    2.8579   -2.4750    0.0000 N   0  0  0  0  0  0  0  0  0  0  0  0
    3.4412   -3.0584    0.0000 C   0  0  0  0  0  0  0  0  0  0  0  0
    2.8579   -3.6417    0.0000 C   0  0  0  0  0  0  0  0  0  0  0  0
    2.2745   -3.0584    0.0000 C   0  0  0  0  0  0  0  0  0  0  0  0
    3.5724   -4.0542    0.0000 C   0  0  0  0  0  0  0  0  0  0  0  0
    3.5724   -4.8792    0.0000 C   0  0  0  0  0  0  0  0  0  0  0  0
    2.8579   -5.2917    0.0000 O   0  0  0  0  0  0  0  0  0  0  0  0
    2.1434   -4.8792    0.0000 C   0  0  0  0  0  0  0  0  0  0  0  0
    2.1434   -4.0542    0.0000 C   0  0  0  0  0  0  0  0  0  0  0  0
    2.1434   -1.2375    0.0000 C   0  0  0  0  0  0  0  0  0  0  0  0
    1.4289   -1.6500    0.0000 N   0  0  0  0  0  0  0  0  0  0  0  0
    0.0000   -4.9500    0.0000 C   0  0  0  0  0  0  0  0  0  0  0  0
   -0.6674   -5.4349    0.0000 N   0  0  0  0  0  0  0  0  0  0  0  0
   -0.4125   -6.2195    0.0000 N   0  0  0  0  0  0  0  0  0  0  0  0
    0.4125   -6.2195    0.0000 C   0  0  0  0  0  0  0  0  0  0  0  0
    0.6674   -5.4349    0.0000 N   0  0  0  0  0  0  0  0  0  0  0  0
    1.4521   -5.1800    0.0000 C   0  0  0  0  0  0  0  0  0  0  0  0
  1  2  1  0  0  0  0
  2  3  1  0  0  0  0
  3  4  1  0  0  0  0
  4  5  4  0  0  0  0
  5  6  4  0  0  0  0
  6  7  4  0  0  0  0
  7  8  4  0  0  0  0
  8  9  4  0  0  0  0
  4  9  4  0  0  0  0
  9 10  1  0  0  0  0
 10 11  1  0  0  0  0
 11 12  4  0  0  0  0
 12 13  4  0  0  0  0
 13 14  4  0  0  0  0
 14 15  4  0  0  0  0
 15 16  4  0  0  0  0
 16 17  1  0  0  0  0
 16 18  4  0  0  0  0
 18 19  4  0  0  0  0
 19 20  1  0  0  0  0
 20 21  1  0  0  0  0
 21 22  1  0  0  0  0
 22 23  1  0  0  0  0
 20 23  1  0  0  0  0
 22 24  1  0  0  0  0
 24 25  1  0  0  0  0
 25 26  1  0  0  0  0
 26 27  1  0  0  0  0
 27 28  1  0  0  0  0
 22 28  1  0  0  0  0
 19 29  4  0  0  0  0
 14 29  4  0  0  0  0
 29 30  4  0  0  0  0
 11 30  4  0  0  0  0
  6 31  1  0  0  0  0
 31 32  4  0  0  0  0
 32 33  4  0  0  0  0
 33 34  4  0  0  0  0
 34 35  4  0  0  0  0
 31 35  4  0  0  0  0
 35 36  1  0  0  0  0
M  END
> <BindingDB_ID/CHEMBL_ID>
412611

> <pKi>
5.9

> <Target Name>
Cyclin-A2/Cyclin-dependent kinase 2

> <Target Source Organism>
Homo sapiens

> <Target Uniprot>
P24941

> <Article DOI>
10.1021/acs.jmedchem.8b00690

$$$$

  Mrv2316 09262419122D          

 34 37  0  0  0  0            999 V2000
    2.1434   -3.7125    0.0000 C   0  0  0  0  0  0  0  0  0  0  0  0
    2.1434   -2.8875    0.0000 C   0  0  0  0  0  0  0  0  0  0  0  0
    1.4289   -2.4750    0.0000 O   0  0  0  0  0  0  0  0  0  0  0  0
    0.7145   -2.8875    0.0000 C   0  0  0  0  0  0  0  0  0  0  0  0
    0.7145   -3.7125    0.0000 C   0  0  0  0  0  0  0  0  0  0  0  0
    0.0000   -4.1250    0.0000 C   0  0  0  0  0  0  0  0  0  0  0  0
   -0.7145   -3.7125    0.0000 C   0  0  0  0  0  0  0  0  0  0  0  0
   -0.7145   -2.8875    0.0000 C   0  0  0  0  0  0  0  0  0  0  0  0
    0.0000   -2.4750    0.0000 C   0  0  0  0  0  0  0  0  0  0  0  0
    0.0000   -1.6500    0.0000 N   0  0  0  0  0  0  0  0  0  0  0  0
    0.7145   -1.2375    0.0000 C   0  0  0  0  0  0  0  0  0  0  0  0
    0.7145   -0.4125    0.0000 N   0  0  0  0  0  0  0  0  0  0  0  0
    1.4289    0.0000    0.0000 C   0  0  0  0  0  0  0  0  0  0  0  0
    2.1434   -0.4125    0.0000 C   0  0  0  0  0  0  0  0  0  0  0  0
    2.8579    0.0000    0.0000 C   0  0  0  0  0  0  0  0  0  0  0  0
    3.5724   -0.4125    0.0000 C   0  0  0  0  0  0  0  0  0  0  0  0
    4.2868   -0.0000    0.0000 C   0  0  0  0  0  0  0  0  0  0  0  0
    3.5724   -1.2375    0.0000 N   0  0  0  0  0  0  0  0  0  0  0  0
    2.8579   -1.6500    0.0000 C   0  0  0  0  0  0  0  0  0  0  0  0
    2.8579   -2.4750    0.0000 N   0  0  0  0  0  0  0  0  0  0  0  0
    3.5724   -2.8875    0.0000 C   0  0  0  0  0  0  0  0  0  0  0  0
    3.5724   -3.7125    0.0000 C   0  0  0  0  0  0  0  0  0  0  0  0
    3.5724   -4.5375    0.0000 C   0  0  0  0  0  0  0  0  0  0  0  0
    4.3974   -3.7125    0.0000 C   0  0  0  0  0  0  0  0  0  0  0  0
    2.7474   -3.7125    0.0000 C   0  0  0  0  0  0  0  0  0  0  0  0
    2.1434   -1.2375    0.0000 C   0  0  0  0  0  0  0  0  0  0  0  0
    1.4289   -1.6500    0.0000 N   0  0  0  0  0  0  0  0  0  0  0  0
   -0.0000   -4.9500    0.0000 C   0  0  0  0  0  0  0  0  0  0  0  0
   -0.6674   -5.4349    0.0000 N   0  0  0  0  0  0  0  0  0  0  0  0
   -0.4125   -6.2195    0.0000 N   0  0  0  0  0  0  0  0  0  0  0  0
    0.4125   -6.2195    0.0000 C   0  0  0  0  0  0  0  0  0  0  0  0
    0.8974   -6.8870    0.0000 C   0  0  0  0  0  0  0  0  0  0  0  0
    0.6674   -5.4349    0.0000 N   0  0  0  0  0  0  0  0  0  0  0  0
    1.4521   -5.1800    0.0000 C   0  0  0  0  0  0  0  0  0  0  0  0
  1  2  1  0  0  0  0
  2  3  1  0  0  0  0
  3  4  1  0  0  0  0
  4  5  4  0  0  0  0
  5  6  4  0  0  0  0
  6  7  4  0  0  0  0
  7  8  4  0  0  0  0
  8  9  4  0  0  0  0
  4  9  4  0  0  0  0
  9 10  1  0  0  0  0
 10 11  1  0  0  0  0
 11 12  4  0  0  0  0
 12 13  4  0  0  0  0
 13 14  4  0  0  0  0
 14 15  4  0  0  0  0
 15 16  4  0  0  0  0
 16 17  1  0  0  0  0
 16 18  4  0  0  0  0
 18 19  4  0  0  0  0
 19 20  1  0  0  0  0
 20 21  1  0  0  0  0
 21 22  1  0  0  0  0
 22 23  1  0  0  0  0
 22 24  1  0  0  0  0
 22 25  1  0  0  0  0
 19 26  4  0  0  0  0
 14 26  4  0  0  0  0
 26 27  4  0  0  0  0
 11 27  4  0  0  0  0
  6 28  1  0  0  0  0
 28 29  4  0  0  0  0
 29 30  4  0  0  0  0
 30 31  4  0  0  0  0
 31 32  1  0  0  0  0
 31 33  4  0  0  0  0
 28 33  4  0  0  0  0
 33 34  1  0  0  0  0
M  END
> <BindingDB_ID/CHEMBL_ID>
412614

> <pKi>
6.3

> <Target Name>
Cyclin-A2/Cyclin-dependent kinase 2

> <Target Source Organism>
Homo sapiens

> <Target Uniprot>
P24941

> <Article DOI>
10.1021/acs.jmedchem.8b00690

$$$$

  Mrv2316 09262419122D          

 33 37  0  0  0  0            999 V2000
   -2.8579   -2.4750    0.0000 C   0  0  0  0  0  0  0  0  0  0  0  0
   -2.1434   -2.8875    0.0000 C   0  0  0  0  0  0  0  0  0  0  0  0
   -1.4289   -2.4750    0.0000 O   0  0  0  0  0  0  0  0  0  0  0  0
   -0.7145   -2.8875    0.0000 C   0  0  0  0  0  0  0  0  0  0  0  0
   -0.7145   -3.7125    0.0000 C   0  0  0  0  0  0  0  0  0  0  0  0
    0.0000   -4.1250    0.0000 C   0  0  0  0  0  0  0  0  0  0  0  0
    0.7145   -3.7125    0.0000 C   0  0  0  0  0  0  0  0  0  0  0  0
    0.7145   -2.8875    0.0000 C   0  0  0  0  0  0  0  0  0  0  0  0
    0.0000   -2.4750    0.0000 C   0  0  0  0  0  0  0  0  0  0  0  0
    0.0000   -1.6500    0.0000 N   0  0  0  0  0  0  0  0  0  0  0  0
    0.7145   -1.2375    0.0000 C   0  0  0  0  0  0  0  0  0  0  0  0
    0.7145   -0.4125    0.0000 N   0  0  0  0  0  0  0  0  0  0  0  0
    1.4289    0.0000    0.0000 C   0  0  0  0  0  0  0  0  0  0  0  0
    2.1434   -0.4125    0.0000 C   0  0  0  0  0  0  0  0  0  0  0  0
    2.8579    0.0000    0.0000 C   0  0  0  0  0  0  0  0  0  0  0  0
    3.5724   -0.4125    0.0000 C   0  0  0  0  0  0  0  0  0  0  0  0
    4.2868   -0.0000    0.0000 C   0  0  0  0  0  0  0  0  0  0  0  0
    3.5724   -1.2375    0.0000 N   0  0  0  0  0  0  0  0  0  0  0  0
    2.8579   -1.6500    0.0000 C   0  0  0  0  0  0  0  0  0  0  0  0
    2.8579   -2.4750    0.0000 N   0  0  0  0  0  0  0  0  0  0  0  0
    3.4412   -3.0584    0.0000 C   0  0  0  0  0  0  0  0  0  0  0  0
    2.8579   -3.6417    0.0000 C   0  0  0  0  0  0  0  0  0  0  0  0
    2.2745   -3.0584    0.0000 C   0  0  0  0  0  0  0  0  0  0  0  0
    1.5711   -3.4894    0.0000 C   0  0  0  0  0  0  0  0  0  0  0  0
    1.5711   -2.6273    0.0000 C   0  0  0  0  0  0  0  0  0  0  0  0
    2.1434   -1.2375    0.0000 C   0  0  0  0  0  0  0  0  0  0  0  0
    1.4289   -1.6500    0.0000 N   0  0  0  0  0  0  0  0  0  0  0  0
    0.0000   -4.9500    0.0000 C   0  0  0  0  0  0  0  0  0  0  0  0
    0.6674   -5.4349    0.0000 N   0  0  0  0  0  0  0  0  0  0  0  0
    0.4125   -6.2195    0.0000 N   0  0  0  0  0  0  0  0  0  0  0  0
   -0.4125   -6.2195    0.0000 C   0  0  0  0  0  0  0  0  0  0  0  0
   -0.6674   -5.4349    0.0000 N   0  0  0  0  0  0  0  0  0  0  0  0
   -1.4521   -5.1800    0.0000 C   0  0  0  0  0  0  0  0  0  0  0  0
  1  2  1  0  0  0  0
  2  3  1  0  0  0  0
  3  4  1  0  0  0  0
  4  5  4  0  0  0  0
  5  6  4  0  0  0  0
  6  7  4  0  0  0  0
  7  8  4  0  0  0  0
  8  9  4  0  0  0  0
  4  9  4  0  0  0  0
  9 10  1  0  0  0  0
 10 11  1  0  0  0  0
 11 12  4  0  0  0  0
 12 13  4  0  0  0  0
 13 14  4  0  0  0  0
 14 15  4  0  0  0  0
 15 16  4  0  0  0  0
 16 17  1  0  0  0  0
 16 18  4  0  0  0  0
 18 19  4  0  0  0  0
 19 20  1  0  0  0  0
 20 21  1  0  0  0  0
 21 22  1  0  0  0  0
 22 23  1  0  0  0  0
 20 23  1  0  0  0  0
 23 24  1  0  0  0  0
 23 25  1  0  0  0  0
 19 26  4  0  0  0  0
 14 26  4  0  0  0  0
 26 27  4  0  0  0  0
 11 27  4  0  0  0  0
  6 28  1  0  0  0  0
 28 29  4  0  0  0  0
 29 30  4  0  0  0  0
 30 31  4  0  0  0  0
 31 32  4  0  0  0  0
 28 32  4  0  0  0  0
 32 33  1  0  0  0  0
M  END
> <BindingDB_ID/CHEMBL_ID>
412644

> <pKi>
4.9

> <Target Name>
Cyclin-A2/Cyclin-dependent kinase 2

> <Target Source Organism>
Homo sapiens

> <Target Uniprot>
P24941

> <Article DOI>
10.1021/acs.jmedchem.8b00690

$$$$

  Mrv2316 09262419122D          

 34 37  0  0  1  0            999 V2000
    2.1434   -3.7125    0.0000 C   0  0  0  0  0  0  0  0  0  0  0  0
    2.1434   -2.8875    0.0000 C   0  0  0  0  0  0  0  0  0  0  0  0
    1.4289   -2.4750    0.0000 O   0  0  0  0  0  0  0  0  0  0  0  0
    0.7145   -2.8875    0.0000 C   0  0  0  0  0  0  0  0  0  0  0  0
    0.7145   -3.7125    0.0000 C   0  0  0  0  0  0  0  0  0  0  0  0
    0.0000   -4.1250    0.0000 C   0  0  0  0  0  0  0  0  0  0  0  0
   -0.7145   -3.7125    0.0000 C   0  0  0  0  0  0  0  0  0  0  0  0
   -0.7145   -2.8875    0.0000 C   0  0  0  0  0  0  0  0  0  0  0  0
    0.0000   -2.4750    0.0000 C   0  0  0  0  0  0  0  0  0  0  0  0
    0.0000   -1.6500    0.0000 N   0  0  0  0  0  0  0  0  0  0  0  0
    0.7145   -1.2375    0.0000 C   0  0  0  0  0  0  0  0  0  0  0  0
    0.7145   -0.4125    0.0000 N   0  0  0  0  0  0  0  0  0  0  0  0
    1.4289    0.0000    0.0000 C   0  0  0  0  0  0  0  0  0  0  0  0
    2.1434   -0.4125    0.0000 C   0  0  0  0  0  0  0  0  0  0  0  0
    2.8579    0.0000    0.0000 C   0  0  0  0  0  0  0  0  0  0  0  0
    3.5724   -0.4125    0.0000 C   0  0  0  0  0  0  0  0  0  0  0  0
    4.2868   -0.0000    0.0000 C   0  0  0  0  0  0  0  0  0  0  0  0
    3.5724   -1.2375    0.0000 N   0  0  0  0  0  0  0  0  0  0  0  0
    2.8579   -1.6500    0.0000 C   0  0  0  0  0  0  0  0  0  0  0  0
    2.8579   -2.4750    0.0000 N   0  0  0  0  0  0  0  0  0  0  0  0
    3.5724   -2.8875    0.0000 C   0  0  1  0  0  0  0  0  0  0  0  0
    4.2868   -2.4750    0.0000 C   0  0  0  0  0  0  0  0  0  0  0  0
    3.5724   -3.7125    0.0000 C   0  0  0  0  0  0  0  0  0  0  0  0
    3.5724   -4.5375    0.0000 C   0  0  0  0  0  0  0  0  0  0  0  0
    4.3974   -3.7125    0.0000 C   0  0  0  0  0  0  0  0  0  0  0  0
    2.7474   -3.7125    0.0000 C   0  0  0  0  0  0  0  0  0  0  0  0
    2.1434   -1.2375    0.0000 C   0  0  0  0  0  0  0  0  0  0  0  0
    1.4289   -1.6500    0.0000 N   0  0  0  0  0  0  0  0  0  0  0  0
   -0.0000   -4.9500    0.0000 C   0  0  0  0  0  0  0  0  0  0  0  0
   -0.6674   -5.4349    0.0000 N   0  0  0  0  0  0  0  0  0  0  0  0
   -0.4125   -6.2195    0.0000 N   0  0  0  0  0  0  0  0  0  0  0  0
    0.4125   -6.2195    0.0000 C   0  0  0  0  0  0  0  0  0  0  0  0
    0.6674   -5.4349    0.0000 N   0  0  0  0  0  0  0  0  0  0  0  0
    1.4521   -5.1800    0.0000 C   0  0  0  0  0  0  0  0  0  0  0  0
  1  2  1  0  0  0  0
  2  3  1  0  0  0  0
  3  4  1  0  0  0  0
  4  5  4  0  0  0  0
  5  6  4  0  0  0  0
  6  7  4  0  0  0  0
  7  8  4  0  0  0  0
  8  9  4  0  0  0  0
  4  9  4  0  0  0  0
  9 10  1  0  0  0  0
 10 11  1  0  0  0  0
 11 12  4  0  0  0  0
 12 13  4  0  0  0  0
 13 14  4  0  0  0  0
 14 15  4  0  0  0  0
 15 16  4  0  0  0  0
 16 17  1  0  0  0  0
 16 18  4  0  0  0  0
 18 19  4  0  0  0  0
 19 20  1  0  0  0  0
 21 20  1  0  0  0  0
 21 22  1  1  0  0  0
 21 23  1  0  0  0  0
 23 24  1  0  0  0  0
 23 25  1  0  0  0  0
 23 26  1  0  0  0  0
 19 27  4  0  0  0  0
 14 27  4  0  0  0  0
 27 28  4  0  0  0  0
 11 28  4  0  0  0  0
  6 29  1  0  0  0  0
 29 30  4  0  0  0  0
 30 31  4  0  0  0  0
 31 32  4  0  0  0  0
 32 33  4  0  0  0  0
 29 33  4  0  0  0  0
 33 34  1  0  0  0  0
M  END
> <BindingDB_ID/CHEMBL_ID>
412656

> <pKi>
7.1

> <Target Name>
Cyclin-A2/Cyclin-dependent kinase 2

> <Target Source Organism>
Homo sapiens

> <Target Uniprot>
P24941

> <Article DOI>
10.1021/acs.jmedchem.8b00690

$$$$

  Mrv2316 09262419122D          

 32 36  0  0  0  0            999 V2000
   -2.8579   -2.4750    0.0000 C   0  0  0  0  0  0  0  0  0  0  0  0
   -2.1434   -2.8875    0.0000 C   0  0  0  0  0  0  0  0  0  0  0  0
   -1.4289   -2.4750    0.0000 O   0  0  0  0  0  0  0  0  0  0  0  0
   -0.7145   -2.8875    0.0000 C   0  0  0  0  0  0  0  0  0  0  0  0
   -0.7145   -3.7125    0.0000 C   0  0  0  0  0  0  0  0  0  0  0  0
    0.0000   -4.1250    0.0000 C   0  0  0  0  0  0  0  0  0  0  0  0
    0.7145   -3.7125    0.0000 C   0  0  0  0  0  0  0  0  0  0  0  0
    0.7145   -2.8875    0.0000 C   0  0  0  0  0  0  0  0  0  0  0  0
    0.0000   -2.4750    0.0000 C   0  0  0  0  0  0  0  0  0  0  0  0
    0.0000   -1.6500    0.0000 N   0  0  0  0  0  0  0  0  0  0  0  0
    0.7145   -1.2375    0.0000 C   0  0  0  0  0  0  0  0  0  0  0  0
    0.7145   -0.4125    0.0000 N   0  0  0  0  0  0  0  0  0  0  0  0
    1.4289    0.0000    0.0000 C   0  0  0  0  0  0  0  0  0  0  0  0
    2.1434   -0.4125    0.0000 C   0  0  0  0  0  0  0  0  0  0  0  0
    2.8579    0.0000    0.0000 C   0  0  0  0  0  0  0  0  0  0  0  0
    3.5724   -0.4125    0.0000 C   0  0  0  0  0  0  0  0  0  0  0  0
    4.2868   -0.0000    0.0000 C   0  0  0  0  0  0  0  0  0  0  0  0
    3.5724   -1.2375    0.0000 N   0  0  0  0  0  0  0  0  0  0  0  0
    2.8579   -1.6500    0.0000 C   0  0  0  0  0  0  0  0  0  0  0  0
    2.8579   -2.4750    0.0000 N   0  0  0  0  0  0  0  0  0  0  0  0
    3.5253   -2.9599    0.0000 C   0  0  0  0  0  0  0  0  0  0  0  0
    3.2704   -3.7445    0.0000 C   0  0  0  0  0  0  0  0  0  0  0  0
    2.4454   -3.7445    0.0000 C   0  0  0  0  0  0  0  0  0  0  0  0
    2.1904   -2.9599    0.0000 C   0  0  0  0  0  0  0  0  0  0  0  0
    2.1434   -1.2375    0.0000 C   0  0  0  0  0  0  0  0  0  0  0  0
    1.4289   -1.6500    0.0000 N   0  0  0  0  0  0  0  0  0  0  0  0
    0.0000   -4.9500    0.0000 C   0  0  0  0  0  0  0  0  0  0  0  0
   -0.6674   -5.4349    0.0000 N   0  0  0  0  0  0  0  0  0  0  0  0
   -0.4125   -6.2195    0.0000 N   0  0  0  0  0  0  0  0  0  0  0  0
    0.4125   -6.2195    0.0000 C   0  0  0  0  0  0  0  0  0  0  0  0
    0.6674   -5.4349    0.0000 N   0  0  0  0  0  0  0  0  0  0  0  0
    1.4521   -5.1800    0.0000 C   0  0  0  0  0  0  0  0  0  0  0  0
  1  2  1  0  0  0  0
  2  3  1  0  0  0  0
  3  4  1  0  0  0  0
  4  5  4  0  0  0  0
  5  6  4  0  0  0  0
  6  7  4  0  0  0  0
  7  8  4  0  0  0  0
  8  9  4  0  0  0  0
  4  9  4  0  0  0  0
  9 10  1  0  0  0  0
 10 11  1  0  0  0  0
 11 12  4  0  0  0  0
 12 13  4  0  0  0  0
 13 14  4  0  0  0  0
 14 15  4  0  0  0  0
 15 16  4  0  0  0  0
 16 17  1  0  0  0  0
 16 18  4  0  0  0  0
 18 19  4  0  0  0  0
 19 20  1  0  0  0  0
 20 21  1  0  0  0  0
 21 22  1  0  0  0  0
 22 23  1  0  0  0  0
 23 24  1  0  0  0  0
 20 24  1  0  0  0  0
 19 25  4  0  0  0  0
 14 25  4  0  0  0  0
 25 26  4  0  0  0  0
 11 26  4  0  0  0  0
  6 27  1  0  0  0  0
 27 28  4  0  0  0  0
 28 29  4  0  0  0  0
 29 30  4  0  0  0  0
 30 31  4  0  0  0  0
 27 31  4  0  0  0  0
 31 32  1  0  0  0  0
M  END
> <BindingDB_ID/CHEMBL_ID>
412658

> <pKi>
6.3

> <Target Name>
Cyclin-A2/Cyclin-dependent kinase 2

> <Target Source Organism>
Homo sapiens

> <Target Uniprot>
P24941

> <Article DOI>
10.1021/acs.jmedchem.8b00690

$$$$

  Mrv2316 09262419122D          

 25 27  0  0  0  0            999 V2000
    0.7145   -0.4125    0.0000 Cl  0  0  0  0  0  0  0  0  0  0  0  0
    1.4289    0.0000    0.0000 C   0  0  0  0  0  0  0  0  0  0  0  0
    1.4289    0.8250    0.0000 C   0  0  0  0  0  0  0  0  0  0  0  0
    2.1434    1.2375    0.0000 C   0  0  0  0  0  0  0  0  0  0  0  0
    2.8579    0.8250    0.0000 C   0  0  0  0  0  0  0  0  0  0  0  0
    2.8579    0.0000    0.0000 C   0  0  0  0  0  0  0  0  0  0  0  0
    3.5724   -0.4125    0.0000 Cl  0  0  0  0  0  0  0  0  0  0  0  0
    2.1434   -0.4125    0.0000 C   0  0  0  0  0  0  0  0  0  0  0  0
    2.1434   -1.2375    0.0000 C   0  0  0  0  0  0  0  0  0  0  0  0
    2.8579   -1.6500    0.0000 O   0  0  0  0  0  0  0  0  0  0  0  0
    1.4289   -1.6500    0.0000 N   0  0  0  0  0  0  0  0  0  0  0  0
    1.4289   -2.4750    0.0000 C   0  0  0  0  0  0  0  0  0  0  0  0
    2.0964   -2.9599    0.0000 C   0  0  0  0  0  0  0  0  0  0  0  0
    1.8414   -3.7445    0.0000 N   0  0  0  0  0  0  0  0  0  0  0  0
    1.0164   -3.7445    0.0000 N   0  0  0  0  0  0  0  0  0  0  0  0
    0.7615   -2.9599    0.0000 C   0  0  0  0  0  0  0  0  0  0  0  0
   -0.0231   -2.7050    0.0000 C   0  0  0  0  0  0  0  0  0  0  0  0
   -0.1946   -1.8980    0.0000 O   0  0  0  0  0  0  0  0  0  0  0  0
   -0.6362   -3.2570    0.0000 N   0  0  0  0  0  0  0  0  0  0  0  0
   -1.4208   -3.0021    0.0000 C   0  0  0  0  0  0  0  0  0  0  0  0
   -2.0339   -3.5541    0.0000 C   0  0  0  0  0  0  0  0  0  0  0  0
   -2.8186   -3.2992    0.0000 C   0  0  0  0  0  0  0  0  0  0  0  0
   -2.9901   -2.4922    0.0000 N   0  0  0  0  0  0  0  0  0  0  0  0
   -2.3770   -1.9402    0.0000 C   0  0  0  0  0  0  0  0  0  0  0  0
   -1.5924   -2.1951    0.0000 C   0  0  0  0  0  0  0  0  0  0  0  0
  1  2  1  0  0  0  0
  2  3  4  0  0  0  0
  3  4  4  0  0  0  0
  4  5  4  0  0  0  0
  5  6  4  0  0  0  0
  6  7  1  0  0  0  0
  6  8  4  0  0  0  0
  2  8  4  0  0  0  0
  8  9  1  0  0  0  0
  9 10  2  0  0  0  0
  9 11  1  0  0  0  0
 11 12  1  0  0  0  0
 12 13  4  0  0  0  0
 13 14  4  0  0  0  0
 14 15  4  0  0  0  0
 15 16  4  0  0  0  0
 12 16  4  0  0  0  0
 16 17  1  0  0  0  0
 17 18  2  0  0  0  0
 17 19  1  0  0  0  0
 19 20  1  0  0  0  0
 20 21  1  0  0  0  0
 21 22  1  0  0  0  0
 22 23  1  0  0  0  0
 23 24  1  0  0  0  0
 24 25  1  0  0  0  0
 20 25  1  0  0  0  0
M  STY  1   1 DAT
M  SAL   1  1  14
M  SDT   1 MRV_IMPLICIT_H                                        
M  SDD   1     0.5304   -0.4125    DR    ALL  0       0  
M  SED   1 IMPL_H1
M  END
> <BindingDB_ID/CHEMBL_ID>
50113281

> <pKi>
7.4

> <Target Name>
Cyclin-A2/Cyclin-dependent kinase 2

> <Target Source Organism>
Homo sapiens

> <Target Uniprot>
P24941

> <Article DOI>
10.1021/acs.jmedchem.6b00150

$$$$

  Mrv2316 09262419122D          

 28 31  0  0  0  0            999 V2000
    4.0668    6.4729    0.0000 N   0  0  0  0  0  0  0  0  0  0  0  0
    4.0668    5.6479    0.0000 S   0  0  0  0  0  0  0  0  0  0  0  0
    3.2418    5.6479    0.0000 O   0  0  0  0  0  0  0  0  0  0  0  0
    4.8918    5.6479    0.0000 O   0  0  0  0  0  0  0  0  0  0  0  0
    4.0668    4.8229    0.0000 C   0  0  0  0  0  0  0  0  0  0  0  0
    4.7812    4.4104    0.0000 C   0  0  0  0  0  0  0  0  0  0  0  0
    4.7812    3.5854    0.0000 C   0  0  0  0  0  0  0  0  0  0  0  0
    4.0668    3.1729    0.0000 C   0  0  0  0  0  0  0  0  0  0  0  0
    4.0668    2.3479    0.0000 N   0  0  0  0  0  0  0  0  0  0  0  0
    3.3523    1.9354    0.0000 C   0  0  0  0  0  0  0  0  0  0  0  0
    3.3523    1.1104    0.0000 N   0  0  0  0  0  0  0  0  0  0  0  0
    2.6378    0.6979    0.0000 C   0  0  0  0  0  0  0  0  0  0  0  0
    2.6378   -0.1271    0.0000 O   0  0  0  0  0  0  0  0  0  0  0  0
    3.3523   -0.5396    0.0000 C   0  0  0  0  0  0  0  0  0  0  0  0
    3.3523   -1.3646    0.0000 C   0  0  0  0  0  0  0  0  0  0  0  0
    4.0668   -1.7771    0.0000 C   0  0  0  0  0  0  0  0  0  0  0  0
    4.0668   -2.6021    0.0000 C   0  0  0  0  0  0  0  0  0  0  0  0
    3.3523   -3.0146    0.0000 C   0  0  0  0  0  0  0  0  0  0  0  0
    2.6378   -2.6021    0.0000 C   0  0  0  0  0  0  0  0  0  0  0  0
    2.6378   -1.7771    0.0000 C   0  0  0  0  0  0  0  0  0  0  0  0
    1.9233    1.1104    0.0000 C   0  0  0  0  0  0  0  0  0  0  0  0
    1.1387    0.8555    0.0000 N   0  0  0  0  0  0  0  0  0  0  0  0
    0.6538    1.5229    0.0000 C   0  0  0  0  0  0  0  0  0  0  0  0
    1.1387    2.1904    0.0000 N   0  0  0  0  0  0  0  0  0  0  0  0
    1.9233    1.9354    0.0000 C   0  0  0  0  0  0  0  0  0  0  0  0
    2.6378    2.3479    0.0000 N   0  0  0  0  0  0  0  0  0  0  0  0
    3.3523    3.5854    0.0000 C   0  0  0  0  0  0  0  0  0  0  0  0
    3.3523    4.4104    0.0000 C   0  0  0  0  0  0  0  0  0  0  0  0
  1  2  1  0  0  0  0
  2  3  2  0  0  0  0
  2  4  2  0  0  0  0
  2  5  1  0  0  0  0
  5  6  4  0  0  0  0
  6  7  4  0  0  0  0
  7  8  4  0  0  0  0
  8  9  1  0  0  0  0
  9 10  1  0  0  0  0
 10 11  4  0  0  0  0
 11 12  4  0  0  0  0
 12 13  1  0  0  0  0
 13 14  1  0  0  0  0
 14 15  1  0  0  0  0
 15 16  1  0  0  0  0
 16 17  1  0  0  0  0
 17 18  1  0  0  0  0
 18 19  1  0  0  0  0
 19 20  1  0  0  0  0
 15 20  1  0  0  0  0
 12 21  4  0  0  0  0
 21 22  4  0  0  0  0
 22 23  4  0  0  0  0
 23 24  4  0  0  0  0
 24 25  4  0  0  0  0
 21 25  4  0  0  0  0
 25 26  4  0  0  0  0
 10 26  4  0  0  0  0
  8 27  4  0  0  0  0
 27 28  4  0  0  0  0
  5 28  4  0  0  0  0
M  STY  1   1 DAT
M  SAL   1  1  24
M  SDT   1 MRV_IMPLICIT_H                                        
M  SDD   1     0.5304   -0.4125    DR    ALL  0       0  
M  SED   1 IMPL_H1
M  END
> <BindingDB_ID/CHEMBL_ID>
50235342

> <pKi>
8.2

> <Target Name>
Cyclin-A2/Cyclin-dependent kinase 2

> <Target Source Organism>
Homo sapiens

> <Target Uniprot>
P24941

> <Article DOI>
10.1021/acs.jmedchem.8b01469

$$$$

  Mrv2316 09262419122D          

 28 32  0  0  0  0            999 V2000
    0.0000   -1.6500    0.0000 Cl  0  0  0  0  0  0  0  0  0  0  0  0
    0.7145   -1.2375    0.0000 C   0  0  0  0  0  0  0  0  0  0  0  0
    0.7145   -0.4125    0.0000 C   0  0  0  0  0  0  0  0  0  0  0  0
    1.4289    0.0000    0.0000 C   0  0  0  0  0  0  0  0  0  0  0  0
    2.1434   -0.4125    0.0000 C   0  0  0  0  0  0  0  0  0  0  0  0
    2.8579    0.0000    0.0000 N   0  0  0  0  0  0  0  0  0  0  0  0
    3.5724   -0.4125    0.0000 C   0  0  0  0  0  0  0  0  0  0  0  0
    3.5724   -1.2375    0.0000 N   0  0  0  0  0  0  0  0  0  0  0  0
    2.8579   -1.6500    0.0000 C   0  0  0  0  0  0  0  0  0  0  0  0
    2.8579   -2.4750    0.0000 N   0  0  0  0  0  0  0  0  0  0  0  0
    2.1434   -2.8875    0.0000 C   0  0  0  0  0  0  0  0  0  0  0  0
    2.0572   -3.7080    0.0000 C   0  0  0  0  0  0  0  0  0  0  0  0
    1.2502   -3.8795    0.0000 C   0  0  0  0  0  0  0  0  0  0  0  0
    0.8377   -3.1650    0.0000 N   0  0  0  0  0  0  0  0  0  0  0  0
    1.3897   -2.5519    0.0000 N   0  0  0  0  0  0  0  0  0  0  0  0
    0.9146   -4.6332    0.0000 C   0  0  0  0  0  0  0  0  0  0  0  0
    1.0009   -5.4537    0.0000 C   0  0  0  0  0  0  0  0  0  0  0  0
    0.2472   -5.1181    0.0000 C   0  0  0  0  0  0  0  0  0  0  0  0
    2.1434   -1.2375    0.0000 C   0  0  0  0  0  0  0  0  0  0  0  0
    1.4289   -1.6500    0.0000 C   0  0  0  0  0  0  0  0  0  0  0  0
    4.2868   -0.0000    0.0000 C   0  0  0  0  0  0  0  0  0  0  0  0
    4.2868    0.8250    0.0000 C   0  0  0  0  0  0  0  0  0  0  0  0
    5.0013    1.2375    0.0000 C   0  0  0  0  0  0  0  0  0  0  0  0
    5.7158    0.8250    0.0000 C   0  0  0  0  0  0  0  0  0  0  0  0
    5.7158   -0.0000    0.0000 C   0  0  0  0  0  0  0  0  0  0  0  0
    5.0013   -0.4125    0.0000 C   0  0  0  0  0  0  0  0  0  0  0  0
    6.4302    1.2375    0.0000 C   0  0  0  0  0  0  0  0  0  0  0  0
    7.1447    1.6500    0.0000 N   0  0  0  0  0  0  0  0  0  0  0  0
  1  2  1  0  0  0  0
  2  3  4  0  0  0  0
  3  4  4  0  0  0  0
  4  5  4  0  0  0  0
  5  6  4  0  0  0  0
  6  7  4  0  0  0  0
  7  8  4  0  0  0  0
  8  9  4  0  0  0  0
  9 10  1  0  0  0  0
 10 11  1  0  0  0  0
 11 12  4  0  0  0  0
 12 13  4  0  0  0  0
 13 14  4  0  0  0  0
 14 15  4  0  0  0  0
 11 15  4  0  0  0  0
 13 16  1  0  0  0  0
 16 17  1  0  0  0  0
 17 18  1  0  0  0  0
 16 18  1  0  0  0  0
  9 19  4  0  0  0  0
  5 19  4  0  0  0  0
 19 20  4  0  0  0  0
  2 20  4  0  0  0  0
  7 21  1  0  0  0  0
 21 22  4  0  0  0  0
 22 23  4  0  0  0  0
 23 24  4  0  0  0  0
 24 25  4  0  0  0  0
 25 26  4  0  0  0  0
 21 26  4  0  0  0  0
 24 27  1  0  0  0  0
 27 28  3  0  0  0  0
M  STY  1   1 DAT
M  SAL   1  1  14
M  SDT   1 MRV_IMPLICIT_H                                        
M  SDD   1     0.5304   -0.4125    DR    ALL  0       0  
M  SED   1 IMPL_H1
M  END
> <BindingDB_ID/CHEMBL_ID>
50279724

> <pKi>
6.8

> <Target Name>
Cyclin-A2/Cyclin-dependent kinase 2

> <Target Source Organism>
Homo sapiens

> <Target Uniprot>
P24941

> <Article DOI>
10.1021/acsmedchemlett.7b00239

$$$$

  Mrv2316 09262419122D          

 27 31  0  0  0  0            999 V2000
   -0.7145   -4.5375    0.0000 N   0  0  0  0  0  0  0  0  0  0  0  0
   -0.7145   -3.7125    0.0000 C   0  0  0  0  0  0  0  0  0  0  0  0
   -0.7145   -2.8875    0.0000 C   0  0  0  0  0  0  0  0  0  0  0  0
   -1.4289   -2.4750    0.0000 C   0  0  0  0  0  0  0  0  0  0  0  0
   -1.4289   -1.6500    0.0000 C   0  0  0  0  0  0  0  0  0  0  0  0
   -0.7145   -1.2375    0.0000 C   0  0  0  0  0  0  0  0  0  0  0  0
    0.0000   -1.6500    0.0000 C   0  0  0  0  0  0  0  0  0  0  0  0
    0.0000   -2.4750    0.0000 C   0  0  0  0  0  0  0  0  0  0  0  0
    0.7145   -1.2375    0.0000 C   0  0  0  0  0  0  0  0  0  0  0  0
    0.7145   -0.4125    0.0000 N   0  0  0  0  0  0  0  0  0  0  0  0
    1.4289    0.0000    0.0000 C   0  0  0  0  0  0  0  0  0  0  0  0
    1.4289    0.8250    0.0000 N   0  0  0  0  0  0  0  0  0  0  0  0
    2.1434    1.2375    0.0000 C   0  0  0  0  0  0  0  0  0  0  0  0
    2.2296    2.0580    0.0000 C   0  0  0  0  0  0  0  0  0  0  0  0
    3.0366    2.2295    0.0000 C   0  0  0  0  0  0  0  0  0  0  0  0
    3.4491    1.5150    0.0000 N   0  0  0  0  0  0  0  0  0  0  0  0
    2.8971    0.9019    0.0000 N   0  0  0  0  0  0  0  0  0  0  0  0
    3.3722    2.9832    0.0000 C   0  0  0  0  0  0  0  0  0  0  0  0
    3.2859    3.8037    0.0000 C   0  0  0  0  0  0  0  0  0  0  0  0
    4.0396    3.4681    0.0000 C   0  0  0  0  0  0  0  0  0  0  0  0
    2.1434   -0.4125    0.0000 C   0  0  0  0  0  0  0  0  0  0  0  0
    2.8579    0.0000    0.0000 C   0  0  0  0  0  0  0  0  0  0  0  0
    3.5724   -0.4125    0.0000 C   0  0  0  0  0  0  0  0  0  0  0  0
    3.5724   -1.2375    0.0000 C   0  0  0  0  0  0  0  0  0  0  0  0
    2.8579   -1.6500    0.0000 C   0  0  0  0  0  0  0  0  0  0  0  0
    2.1434   -1.2375    0.0000 C   0  0  0  0  0  0  0  0  0  0  0  0
    1.4289   -1.6500    0.0000 N   0  0  0  0  0  0  0  0  0  0  0  0
  1  2  3  0  0  0  0
  2  3  1  0  0  0  0
  3  4  4  0  0  0  0
  4  5  4  0  0  0  0
  5  6  4  0  0  0  0
  6  7  4  0  0  0  0
  7  8  4  0  0  0  0
  3  8  4  0  0  0  0
  7  9  1  0  0  0  0
  9 10  4  0  0  0  0
 10 11  4  0  0  0  0
 11 12  1  0  0  0  0
 12 13  1  0  0  0  0
 13 14  4  0  0  0  0
 14 15  4  0  0  0  0
 15 16  4  0  0  0  0
 16 17  4  0  0  0  0
 13 17  4  0  0  0  0
 15 18  1  0  0  0  0
 18 19  1  0  0  0  0
 19 20  1  0  0  0  0
 18 20  1  0  0  0  0
 11 21  4  0  0  0  0
 21 22  4  0  0  0  0
 22 23  4  0  0  0  0
 23 24  4  0  0  0  0
 24 25  4  0  0  0  0
 25 26  4  0  0  0  0
 21 26  4  0  0  0  0
 26 27  4  0  0  0  0
  9 27  4  0  0  0  0
M  STY  1   1 DAT
M  SAL   1  1  16
M  SDT   1 MRV_IMPLICIT_H                                        
M  SDD   1     0.5304   -0.4125    DR    ALL  0       0  
M  SED   1 IMPL_H1
M  END
> <BindingDB_ID/CHEMBL_ID>
50279733

> <pKi>
8.0

> <Target Name>
Cyclin-A2/Cyclin-dependent kinase 2

> <Target Source Organism>
Homo sapiens

> <Target Uniprot>
P24941

> <Article DOI>
10.1021/acsmedchemlett.7b00239

$$$$

  Mrv2316 09262419122D          

 28 32  0  0  0  0            999 V2000
    0.0000   -1.6500    0.0000 Cl  0  0  0  0  0  0  0  0  0  0  0  0
    0.7145   -1.2375    0.0000 C   0  0  0  0  0  0  0  0  0  0  0  0
    0.7145   -0.4125    0.0000 C   0  0  0  0  0  0  0  0  0  0  0  0
    1.4289    0.0000    0.0000 C   0  0  0  0  0  0  0  0  0  0  0  0
    2.1434   -0.4125    0.0000 C   0  0  0  0  0  0  0  0  0  0  0  0
    2.8579    0.0000    0.0000 N   0  0  0  0  0  0  0  0  0  0  0  0
    3.5724   -0.4125    0.0000 C   0  0  0  0  0  0  0  0  0  0  0  0
    3.5724   -1.2375    0.0000 N   0  0  0  0  0  0  0  0  0  0  0  0
    2.8579   -1.6500    0.0000 C   0  0  0  0  0  0  0  0  0  0  0  0
    2.8579   -2.4750    0.0000 N   0  0  0  0  0  0  0  0  0  0  0  0
    2.1434   -2.8875    0.0000 C   0  0  0  0  0  0  0  0  0  0  0  0
    2.0572   -3.7080    0.0000 C   0  0  0  0  0  0  0  0  0  0  0  0
    1.2502   -3.8795    0.0000 C   0  0  0  0  0  0  0  0  0  0  0  0
    0.8377   -3.1650    0.0000 N   0  0  0  0  0  0  0  0  0  0  0  0
    1.3897   -2.5519    0.0000 N   0  0  0  0  0  0  0  0  0  0  0  0
    0.9146   -4.6332    0.0000 C   0  0  0  0  0  0  0  0  0  0  0  0
    1.0009   -5.4537    0.0000 C   0  0  0  0  0  0  0  0  0  0  0  0
    0.2472   -5.1181    0.0000 C   0  0  0  0  0  0  0  0  0  0  0  0
    2.1434   -1.2375    0.0000 C   0  0  0  0  0  0  0  0  0  0  0  0
    1.4289   -1.6500    0.0000 C   0  0  0  0  0  0  0  0  0  0  0  0
    4.2868   -0.0000    0.0000 C   0  0  0  0  0  0  0  0  0  0  0  0
    4.2868    0.8250    0.0000 C   0  0  0  0  0  0  0  0  0  0  0  0
    5.0013    1.2375    0.0000 C   0  0  0  0  0  0  0  0  0  0  0  0
    5.7158    0.8250    0.0000 C   0  0  0  0  0  0  0  0  0  0  0  0
    5.7158   -0.0000    0.0000 C   0  0  0  0  0  0  0  0  0  0  0  0
    5.0013   -0.4125    0.0000 C   0  0  0  0  0  0  0  0  0  0  0  0
    6.4302   -0.4125    0.0000 C   0  0  0  0  0  0  0  0  0  0  0  0
    7.1447   -0.8250    0.0000 N   0  0  0  0  0  0  0  0  0  0  0  0
  1  2  1  0  0  0  0
  2  3  4  0  0  0  0
  3  4  4  0  0  0  0
  4  5  4  0  0  0  0
  5  6  4  0  0  0  0
  6  7  4  0  0  0  0
  7  8  4  0  0  0  0
  8  9  4  0  0  0  0
  9 10  1  0  0  0  0
 10 11  1  0  0  0  0
 11 12  4  0  0  0  0
 12 13  4  0  0  0  0
 13 14  4  0  0  0  0
 14 15  4  0  0  0  0
 11 15  4  0  0  0  0
 13 16  1  0  0  0  0
 16 17  1  0  0  0  0
 17 18  1  0  0  0  0
 16 18  1  0  0  0  0
  9 19  4  0  0  0  0
  5 19  4  0  0  0  0
 19 20  4  0  0  0  0
  2 20  4  0  0  0  0
  7 21  1  0  0  0  0
 21 22  4  0  0  0  0
 22 23  4  0  0  0  0
 23 24  4  0  0  0  0
 24 25  4  0  0  0  0
 25 26  4  0  0  0  0
 21 26  4  0  0  0  0
 25 27  1  0  0  0  0
 27 28  3  0  0  0  0
M  STY  1   1 DAT
M  SAL   1  1  14
M  SDT   1 MRV_IMPLICIT_H                                        
M  SDD   1     0.5304   -0.4125    DR    ALL  0       0  
M  SED   1 IMPL_H1
M  END
> <BindingDB_ID/CHEMBL_ID>
50279735

> <pKi>
6.1

> <Target Name>
Cyclin-A2/Cyclin-dependent kinase 2

> <Target Source Organism>
Homo sapiens

> <Target Uniprot>
P24941

> <Article DOI>
10.1021/acsmedchemlett.7b00239

$$$$

  Mrv2316 09262419122D          

 27 31  0  0  0  0            999 V2000
   -2.8579   -3.3000    0.0000 N   0  0  0  0  0  0  0  0  0  0  0  0
   -2.1434   -2.8875    0.0000 C   0  0  0  0  0  0  0  0  0  0  0  0
   -1.4289   -2.4750    0.0000 C   0  0  0  0  0  0  0  0  0  0  0  0
   -1.4289   -1.6500    0.0000 C   0  0  0  0  0  0  0  0  0  0  0  0
   -0.7145   -1.2375    0.0000 C   0  0  0  0  0  0  0  0  0  0  0  0
    0.0000   -1.6500    0.0000 C   0  0  0  0  0  0  0  0  0  0  0  0
    0.0000   -2.4750    0.0000 C   0  0  0  0  0  0  0  0  0  0  0  0
   -0.7145   -2.8875    0.0000 C   0  0  0  0  0  0  0  0  0  0  0  0
    0.7145   -1.2375    0.0000 C   0  0  0  0  0  0  0  0  0  0  0  0
    0.7145   -0.4125    0.0000 N   0  0  0  0  0  0  0  0  0  0  0  0
    1.4289    0.0000    0.0000 C   0  0  0  0  0  0  0  0  0  0  0  0
    1.4289    0.8250    0.0000 N   0  0  0  0  0  0  0  0  0  0  0  0
    2.1434    1.2375    0.0000 C   0  0  0  0  0  0  0  0  0  0  0  0
    2.2296    2.0580    0.0000 C   0  0  0  0  0  0  0  0  0  0  0  0
    3.0366    2.2295    0.0000 C   0  0  0  0  0  0  0  0  0  0  0  0
    3.4491    1.5150    0.0000 N   0  0  0  0  0  0  0  0  0  0  0  0
    2.8971    0.9019    0.0000 N   0  0  0  0  0  0  0  0  0  0  0  0
    3.3722    2.9832    0.0000 C   0  0  0  0  0  0  0  0  0  0  0  0
    3.2859    3.8037    0.0000 C   0  0  0  0  0  0  0  0  0  0  0  0
    4.0396    3.4681    0.0000 C   0  0  0  0  0  0  0  0  0  0  0  0
    2.1434   -0.4125    0.0000 C   0  0  0  0  0  0  0  0  0  0  0  0
    2.8579    0.0000    0.0000 C   0  0  0  0  0  0  0  0  0  0  0  0
    3.5724   -0.4125    0.0000 C   0  0  0  0  0  0  0  0  0  0  0  0
    3.5724   -1.2375    0.0000 C   0  0  0  0  0  0  0  0  0  0  0  0
    2.8579   -1.6500    0.0000 C   0  0  0  0  0  0  0  0  0  0  0  0
    2.1434   -1.2375    0.0000 C   0  0  0  0  0  0  0  0  0  0  0  0
    1.4289   -1.6500    0.0000 N   0  0  0  0  0  0  0  0  0  0  0  0
  1  2  3  0  0  0  0
  2  3  1  0  0  0  0
  3  4  4  0  0  0  0
  4  5  4  0  0  0  0
  5  6  4  0  0  0  0
  6  7  4  0  0  0  0
  7  8  4  0  0  0  0
  3  8  4  0  0  0  0
  6  9  1  0  0  0  0
  9 10  4  0  0  0  0
 10 11  4  0  0  0  0
 11 12  1  0  0  0  0
 12 13  1  0  0  0  0
 13 14  4  0  0  0  0
 14 15  4  0  0  0  0
 15 16  4  0  0  0  0
 16 17  4  0  0  0  0
 13 17  4  0  0  0  0
 15 18  1  0  0  0  0
 18 19  1  0  0  0  0
 19 20  1  0  0  0  0
 18 20  1  0  0  0  0
 11 21  4  0  0  0  0
 21 22  4  0  0  0  0
 22 23  4  0  0  0  0
 23 24  4  0  0  0  0
 24 25  4  0  0  0  0
 25 26  4  0  0  0  0
 21 26  4  0  0  0  0
 26 27  4  0  0  0  0
  9 27  4  0  0  0  0
M  STY  1   1 DAT
M  SAL   1  1  16
M  SDT   1 MRV_IMPLICIT_H                                        
M  SDD   1     0.5304   -0.4125    DR    ALL  0       0  
M  SED   1 IMPL_H1
M  END
> <BindingDB_ID/CHEMBL_ID>
50279742

> <pKi>
6.9

> <Target Name>
Cyclin-A2/Cyclin-dependent kinase 2

> <Target Source Organism>
Homo sapiens

> <Target Uniprot>
P24941

> <Article DOI>
10.1021/acsmedchemlett.7b00239

$$$$

  Mrv2316 09262419122D          

 24 27  0  0  0  0            999 V2000
    1.3085    4.4991    0.0000 N   0  0  0  0  0  0  0  0  0  0  0  0
    2.0229    4.9116    0.0000 S   0  0  0  0  0  0  0  0  0  0  0  0
    2.4354    4.1971    0.0000 O   0  0  0  0  0  0  0  0  0  0  0  0
    1.6104    5.6260    0.0000 O   0  0  0  0  0  0  0  0  0  0  0  0
    2.7374    5.3241    0.0000 C   0  0  0  0  0  0  0  0  0  0  0  0
    2.8237    6.1446    0.0000 C   0  0  0  0  0  0  0  0  0  0  0  0
    3.6306    6.3161    0.0000 C   0  0  0  0  0  0  0  0  0  0  0  0
    4.0431    5.6016    0.0000 C   0  0  0  0  0  0  0  0  0  0  0  0
    3.4911    4.9885    0.0000 S   0  0  0  0  0  0  0  0  0  0  0  0
    4.8636    5.5154    0.0000 C   0  0  0  0  0  0  0  0  0  0  0  0
    5.3485    6.1828    0.0000 N   0  0  0  0  0  0  0  0  0  0  0  0
    6.1690    6.0966    0.0000 C   0  0  0  0  0  0  0  0  0  0  0  0
    6.5046    5.3429    0.0000 C   0  0  0  0  0  0  0  0  0  0  0  0
    6.0196    4.6755    0.0000 C   0  0  0  0  0  0  0  0  0  0  0  0
    6.3552    3.9218    0.0000 N   0  0  0  0  0  0  0  0  0  0  0  0
    5.8703    3.2543    0.0000 C   0  0  0  0  0  0  0  0  0  0  0  0
    6.1252    2.4697    0.0000 C   0  0  0  0  0  0  0  0  0  0  0  0
    5.4578    1.9848    0.0000 C   0  0  0  0  0  0  0  0  0  0  0  0
    4.7903    2.4697    0.0000 N   0  0  0  0  0  0  0  0  0  0  0  0
    5.0453    3.2543    0.0000 N   0  0  0  0  0  0  0  0  0  0  0  0
    5.4578    1.1598    0.0000 C   0  0  0  0  0  0  0  0  0  0  0  0
    5.8703    0.4453    0.0000 C   0  0  0  0  0  0  0  0  0  0  0  0
    5.0453    0.4453    0.0000 C   0  0  0  0  0  0  0  0  0  0  0  0
    5.1992    4.7617    0.0000 N   0  0  0  0  0  0  0  0  0  0  0  0
  1  2  1  0  0  0  0
  2  3  2  0  0  0  0
  2  4  2  0  0  0  0
  2  5  1  0  0  0  0
  5  6  4  0  0  0  0
  6  7  4  0  0  0  0
  7  8  4  0  0  0  0
  8  9  4  0  0  0  0
  5  9  4  0  0  0  0
  8 10  1  0  0  0  0
 10 11  4  0  0  0  0
 11 12  4  0  0  0  0
 12 13  4  0  0  0  0
 13 14  4  0  0  0  0
 14 15  1  0  0  0  0
 15 16  1  0  0  0  0
 16 17  4  0  0  0  0
 17 18  4  0  0  0  0
 18 19  4  0  0  0  0
 19 20  4  0  0  0  0
 16 20  4  0  0  0  0
 18 21  1  0  0  0  0
 21 22  1  0  0  0  0
 22 23  1  0  0  0  0
 21 23  1  0  0  0  0
 14 24  4  0  0  0  0
 10 24  4  0  0  0  0
M  STY  1   1 DAT
M  SAL   1  1  19
M  SDT   1 MRV_IMPLICIT_H                                        
M  SDD   1     0.5304   -0.4125    DR    ALL  0       0  
M  SED   1 IMPL_H1
M  END
> <BindingDB_ID/CHEMBL_ID>
50279743

> <pKi>
8.2

> <Target Name>
Cyclin-A2/Cyclin-dependent kinase 2

> <Target Source Organism>
Homo sapiens

> <Target Uniprot>
P24941

> <Article DOI>
10.1021/acsmedchemlett.7b00239

$$$$

  Mrv2316 09262419122D          

 26 29  0  0  0  0            999 V2000
    1.3085    4.4991    0.0000 N   0  0  0  0  0  0  0  0  0  0  0  0
    2.0229    4.9116    0.0000 S   0  0  0  0  0  0  0  0  0  0  0  0
    2.4354    4.1971    0.0000 O   0  0  0  0  0  0  0  0  0  0  0  0
    1.6104    5.6260    0.0000 O   0  0  0  0  0  0  0  0  0  0  0  0
    2.7374    5.3241    0.0000 C   0  0  0  0  0  0  0  0  0  0  0  0
    2.8237    6.1446    0.0000 C   0  0  0  0  0  0  0  0  0  0  0  0
    3.6306    6.3161    0.0000 C   0  0  0  0  0  0  0  0  0  0  0  0
    4.0431    5.6016    0.0000 C   0  0  0  0  0  0  0  0  0  0  0  0
    3.4911    4.9885    0.0000 S   0  0  0  0  0  0  0  0  0  0  0  0
    4.8636    5.5154    0.0000 C   0  0  0  0  0  0  0  0  0  0  0  0
    5.3485    6.1828    0.0000 N   0  0  0  0  0  0  0  0  0  0  0  0
    6.1690    6.0966    0.0000 C   0  0  0  0  0  0  0  0  0  0  0  0
    6.5046    5.3429    0.0000 C   0  0  0  0  0  0  0  0  0  0  0  0
    7.3250    5.2567    0.0000 C   0  0  0  0  0  0  0  0  0  0  0  0
    8.1455    5.1704    0.0000 N   0  0  0  0  0  0  0  0  0  0  0  0
    6.0196    4.6755    0.0000 C   0  0  0  0  0  0  0  0  0  0  0  0
    6.3552    3.9218    0.0000 N   0  0  0  0  0  0  0  0  0  0  0  0
    5.8703    3.2543    0.0000 C   0  0  0  0  0  0  0  0  0  0  0  0
    6.1252    2.4697    0.0000 C   0  0  0  0  0  0  0  0  0  0  0  0
    5.4578    1.9848    0.0000 C   0  0  0  0  0  0  0  0  0  0  0  0
    4.7903    2.4697    0.0000 N   0  0  0  0  0  0  0  0  0  0  0  0
    5.0453    3.2543    0.0000 N   0  0  0  0  0  0  0  0  0  0  0  0
    5.4578    1.1598    0.0000 C   0  0  0  0  0  0  0  0  0  0  0  0
    5.8703    0.4453    0.0000 C   0  0  0  0  0  0  0  0  0  0  0  0
    5.0453    0.4453    0.0000 C   0  0  0  0  0  0  0  0  0  0  0  0
    5.1992    4.7617    0.0000 N   0  0  0  0  0  0  0  0  0  0  0  0
  1  2  1  0  0  0  0
  2  3  2  0  0  0  0
  2  4  2  0  0  0  0
  2  5  1  0  0  0  0
  5  6  4  0  0  0  0
  6  7  4  0  0  0  0
  7  8  4  0  0  0  0
  8  9  4  0  0  0  0
  5  9  4  0  0  0  0
  8 10  1  0  0  0  0
 10 11  4  0  0  0  0
 11 12  4  0  0  0  0
 12 13  4  0  0  0  0
 13 14  1  0  0  0  0
 14 15  3  0  0  0  0
 13 16  4  0  0  0  0
 16 17  1  0  0  0  0
 17 18  1  0  0  0  0
 18 19  4  0  0  0  0
 19 20  4  0  0  0  0
 20 21  4  0  0  0  0
 21 22  4  0  0  0  0
 18 22  4  0  0  0  0
 20 23  1  0  0  0  0
 23 24  1  0  0  0  0
 24 25  1  0  0  0  0
 23 25  1  0  0  0  0
 16 26  4  0  0  0  0
 10 26  4  0  0  0  0
M  STY  1   1 DAT
M  SAL   1  1  21
M  SDT   1 MRV_IMPLICIT_H                                        
M  SDD   1     0.5304   -0.4125    DR    ALL  0       0  
M  SED   1 IMPL_H1
M  END
> <BindingDB_ID/CHEMBL_ID>
50279744

> <pKi>
6.8

> <Target Name>
Cyclin-A2/Cyclin-dependent kinase 2

> <Target Source Organism>
Homo sapiens

> <Target Uniprot>
P24941

> <Article DOI>
10.1021/acsmedchemlett.7b00239

$$$$

  Mrv2316 09262419122D          

 25 28  0  0  0  0            999 V2000
    1.3085    4.4991    0.0000 N   0  0  0  0  0  0  0  0  0  0  0  0
    2.0229    4.9116    0.0000 S   0  0  0  0  0  0  0  0  0  0  0  0
    2.4354    4.1971    0.0000 O   0  0  0  0  0  0  0  0  0  0  0  0
    1.6104    5.6260    0.0000 O   0  0  0  0  0  0  0  0  0  0  0  0
    2.7374    5.3241    0.0000 C   0  0  0  0  0  0  0  0  0  0  0  0
    2.8237    6.1446    0.0000 C   0  0  0  0  0  0  0  0  0  0  0  0
    3.6306    6.3161    0.0000 C   0  0  0  0  0  0  0  0  0  0  0  0
    4.0431    5.6016    0.0000 C   0  0  0  0  0  0  0  0  0  0  0  0
    3.4911    4.9885    0.0000 S   0  0  0  0  0  0  0  0  0  0  0  0
    4.8636    5.5154    0.0000 C   0  0  0  0  0  0  0  0  0  0  0  0
    5.3485    6.1828    0.0000 N   0  0  0  0  0  0  0  0  0  0  0  0
    6.1690    6.0966    0.0000 C   0  0  0  0  0  0  0  0  0  0  0  0
    6.5046    5.3429    0.0000 C   0  0  0  0  0  0  0  0  0  0  0  0
    7.3250    5.2567    0.0000 Cl  0  0  0  0  0  0  0  0  0  0  0  0
    6.0196    4.6755    0.0000 C   0  0  0  0  0  0  0  0  0  0  0  0
    6.3552    3.9218    0.0000 N   0  0  0  0  0  0  0  0  0  0  0  0
    5.8703    3.2543    0.0000 C   0  0  0  0  0  0  0  0  0  0  0  0
    6.1252    2.4697    0.0000 C   0  0  0  0  0  0  0  0  0  0  0  0
    5.4578    1.9848    0.0000 C   0  0  0  0  0  0  0  0  0  0  0  0
    4.7903    2.4697    0.0000 N   0  0  0  0  0  0  0  0  0  0  0  0
    5.0453    3.2543    0.0000 N   0  0  0  0  0  0  0  0  0  0  0  0
    5.4578    1.1598    0.0000 C   0  0  0  0  0  0  0  0  0  0  0  0
    5.8703    0.4453    0.0000 C   0  0  0  0  0  0  0  0  0  0  0  0
    5.0453    0.4453    0.0000 C   0  0  0  0  0  0  0  0  0  0  0  0
    5.1992    4.7617    0.0000 N   0  0  0  0  0  0  0  0  0  0  0  0
  1  2  1  0  0  0  0
  2  3  2  0  0  0  0
  2  4  2  0  0  0  0
  2  5  1  0  0  0  0
  5  6  4  0  0  0  0
  6  7  4  0  0  0  0
  7  8  4  0  0  0  0
  8  9  4  0  0  0  0
  5  9  4  0  0  0  0
  8 10  1  0  0  0  0
 10 11  4  0  0  0  0
 11 12  4  0  0  0  0
 12 13  4  0  0  0  0
 13 14  1  0  0  0  0
 13 15  4  0  0  0  0
 15 16  1  0  0  0  0
 16 17  1  0  0  0  0
 17 18  4  0  0  0  0
 18 19  4  0  0  0  0
 19 20  4  0  0  0  0
 20 21  4  0  0  0  0
 17 21  4  0  0  0  0
 19 22  1  0  0  0  0
 22 23  1  0  0  0  0
 23 24  1  0  0  0  0
 22 24  1  0  0  0  0
 15 25  4  0  0  0  0
 10 25  4  0  0  0  0
M  STY  1   1 DAT
M  SAL   1  1  20
M  SDT   1 MRV_IMPLICIT_H                                        
M  SDD   1     0.5304   -0.4125    DR    ALL  0       0  
M  SED   1 IMPL_H1
M  END
> <BindingDB_ID/CHEMBL_ID>
50279763

> <pKi>
7.8

> <Target Name>
Cyclin-A2/Cyclin-dependent kinase 2

> <Target Source Organism>
Homo sapiens

> <Target Uniprot>
P24941

> <Article DOI>
10.1021/acsmedchemlett.7b00239

$$$$

  Mrv2316 09262419122D          

 31 34  0  0  0  0            999 V2000
    5.7158   -2.4750    0.0000 C   0  0  0  0  0  0  0  0  0  0  0  0
    5.0013   -2.8875    0.0000 N   0  0  0  0  0  0  0  0  0  0  0  0
    5.0013   -3.7125    0.0000 C   0  0  0  0  0  0  0  0  0  0  0  0
    5.6687   -4.1974    0.0000 N   0  0  0  0  0  0  0  0  0  0  0  0
    5.4138   -4.9820    0.0000 C   0  0  0  0  0  0  0  0  0  0  0  0
    5.8987   -5.6495    0.0000 C   0  0  0  0  0  0  0  0  0  0  0  0
    4.5888   -4.9820    0.0000 C   0  0  0  0  0  0  0  0  0  0  0  0
    4.3339   -4.1974    0.0000 S   0  0  0  0  0  0  0  0  0  0  0  0
    4.1039   -5.6495    0.0000 C   0  0  0  0  0  0  0  0  0  0  0  0
    4.4394   -6.4032    0.0000 N   0  0  0  0  0  0  0  0  0  0  0  0
    3.9545   -7.0706    0.0000 C   0  0  0  0  0  0  0  0  0  0  0  0
    4.2901   -7.8243    0.0000 N   0  0  0  0  0  0  0  0  0  0  0  0
    5.1105   -7.9105    0.0000 C   0  0  0  0  0  0  0  0  0  0  0  0
    5.5955   -7.2431    0.0000 C   0  0  0  0  0  0  0  0  0  0  0  0
    6.4160   -7.3293    0.0000 C   0  0  0  0  0  0  0  0  0  0  0  0
    6.7515   -8.0830    0.0000 C   0  0  0  0  0  0  0  0  0  0  0  0
    6.2666   -8.7504    0.0000 C   0  0  0  0  0  0  0  0  0  0  0  0
    5.4461   -8.6642    0.0000 C   0  0  0  0  0  0  0  0  0  0  0  0
    6.6021   -9.5041    0.0000 C   0  0  0  0  0  0  0  0  0  0  0  0
    7.4226   -9.5903    0.0000 O   0  0  0  0  0  0  0  0  0  0  0  0
    6.1172  -10.1715    0.0000 N   0  0  0  0  0  0  0  0  0  0  0  0
    6.4528  -10.9252    0.0000 C   0  0  0  0  0  0  0  0  0  0  0  0
    5.9679  -11.5926    0.0000 C   0  0  0  0  0  0  0  0  0  0  0  0
    5.1474  -11.5064    0.0000 O   0  0  0  0  0  0  0  0  0  0  0  0
    4.8118  -10.7527    0.0000 C   0  0  0  0  0  0  0  0  0  0  0  0
    5.2967  -10.0853    0.0000 C   0  0  0  0  0  0  0  0  0  0  0  0
    3.1340   -6.9844    0.0000 N   0  0  0  0  0  0  0  0  0  0  0  0
    2.7985   -6.2307    0.0000 C   0  0  0  0  0  0  0  0  0  0  0  0
    3.2834   -5.5632    0.0000 C   0  0  0  0  0  0  0  0  0  0  0  0
    2.9478   -4.8096    0.0000 C   0  0  0  0  0  0  0  0  0  0  0  0
    2.6123   -4.0559    0.0000 N   0  0  0  0  0  0  0  0  0  0  0  0
  1  2  1  0  0  0  0
  2  3  1  0  0  0  0
  3  4  4  0  0  0  0
  4  5  4  0  0  0  0
  5  6  1  0  0  0  0
  5  7  4  0  0  0  0
  7  8  4  0  0  0  0
  3  8  4  0  0  0  0
  7  9  1  0  0  0  0
  9 10  4  0  0  0  0
 10 11  4  0  0  0  0
 11 12  1  0  0  0  0
 12 13  1  0  0  0  0
 13 14  4  0  0  0  0
 14 15  4  0  0  0  0
 15 16  4  0  0  0  0
 16 17  4  0  0  0  0
 17 18  4  0  0  0  0
 13 18  4  0  0  0  0
 17 19  1  0  0  0  0
 19 20  2  0  0  0  0
 19 21  1  0  0  0  0
 21 22  1  0  0  0  0
 22 23  1  0  0  0  0
 23 24  1  0  0  0  0
 24 25  1  0  0  0  0
 25 26  1  0  0  0  0
 21 26  1  0  0  0  0
 11 27  4  0  0  0  0
 27 28  4  0  0  0  0
 28 29  4  0  0  0  0
  9 29  4  0  0  0  0
 29 30  1  0  0  0  0
 30 31  3  0  0  0  0
M  END
> <BindingDB_ID/CHEMBL_ID>
50425002

> <pKi>
6.7

> <Target Name>
Cyclin-A2/Cyclin-dependent kinase 2

> <Target Source Organism>
Homo sapiens

> <Target Uniprot>
P24941

> <Article DOI>
10.1016/j.ejmech.2013.08.052

$$$$

  Mrv2316 09262419122D          

 24 26  0  0  0  0            999 V2000
    2.8579   -2.4750    0.0000 C   0  0  0  0  0  0  0  0  0  0  0  0
    2.1434   -2.8875    0.0000 N   0  0  0  0  0  0  0  0  0  0  0  0
    2.1434   -3.7125    0.0000 C   0  0  0  0  0  0  0  0  0  0  0  0
    2.8109   -4.1974    0.0000 N   0  0  0  0  0  0  0  0  0  0  0  0
    2.5559   -4.9820    0.0000 C   0  0  0  0  0  0  0  0  0  0  0  0
    3.0408   -5.6495    0.0000 C   0  0  0  0  0  0  0  0  0  0  0  0
    1.7309   -4.9820    0.0000 C   0  0  0  0  0  0  0  0  0  0  0  0
    1.4760   -4.1974    0.0000 S   0  0  0  0  0  0  0  0  0  0  0  0
    1.2460   -5.6495    0.0000 C   0  0  0  0  0  0  0  0  0  0  0  0
    1.5815   -6.4032    0.0000 N   0  0  0  0  0  0  0  0  0  0  0  0
    1.0966   -7.0706    0.0000 C   0  0  0  0  0  0  0  0  0  0  0  0
    1.4322   -7.8243    0.0000 N   0  0  0  0  0  0  0  0  0  0  0  0
    0.9473   -8.4917    0.0000 C   0  0  0  0  0  0  0  0  0  0  0  0
    1.2828   -9.2454    0.0000 C   0  0  0  0  0  0  0  0  0  0  0  0
    0.7979   -9.9128    0.0000 C   0  0  0  0  0  0  0  0  0  0  0  0
   -0.0226   -9.8266    0.0000 C   0  0  0  0  0  0  0  0  0  0  0  0
   -0.3581   -9.0729    0.0000 C   0  0  0  0  0  0  0  0  0  0  0  0
   -1.1786   -8.9867    0.0000 O   0  0  0  0  0  0  0  0  0  0  0  0
    0.1268   -8.4055    0.0000 C   0  0  0  0  0  0  0  0  0  0  0  0
    0.2761   -6.9844    0.0000 N   0  0  0  0  0  0  0  0  0  0  0  0
   -0.0594   -6.2307    0.0000 C   0  0  0  0  0  0  0  0  0  0  0  0
    0.4255   -5.5632    0.0000 C   0  0  0  0  0  0  0  0  0  0  0  0
    0.0900   -4.8096    0.0000 C   0  0  0  0  0  0  0  0  0  0  0  0
   -0.2456   -4.0559    0.0000 N   0  0  0  0  0  0  0  0  0  0  0  0
  1  2  1  0  0  0  0
  2  3  1  0  0  0  0
  3  4  4  0  0  0  0
  4  5  4  0  0  0  0
  5  6  1  0  0  0  0
  5  7  4  0  0  0  0
  7  8  4  0  0  0  0
  3  8  4  0  0  0  0
  7  9  1  0  0  0  0
  9 10  4  0  0  0  0
 10 11  4  0  0  0  0
 11 12  1  0  0  0  0
 12 13  1  0  0  0  0
 13 14  4  0  0  0  0
 14 15  4  0  0  0  0
 15 16  4  0  0  0  0
 16 17  4  0  0  0  0
 17 18  1  0  0  0  0
 17 19  4  0  0  0  0
 13 19  4  0  0  0  0
 11 20  4  0  0  0  0
 20 21  4  0  0  0  0
 21 22  4  0  0  0  0
  9 22  4  0  0  0  0
 22 23  1  0  0  0  0
 23 24  3  0  0  0  0
M  END
> <BindingDB_ID/CHEMBL_ID>
50425005

> <pKi>
7.9

> <Target Name>
Cyclin-A2/Cyclin-dependent kinase 2

> <Target Source Organism>
Homo sapiens

> <Target Uniprot>
P24941

> <Article DOI>
10.1016/j.ejmech.2021.113244

$$$$

  Mrv2316 09262419122D          

 32 35  0  0  0  0            999 V2000
    5.7158   -2.4750    0.0000 C   0  0  0  0  0  0  0  0  0  0  0  0
    5.0013   -2.8875    0.0000 N   0  0  0  0  0  0  0  0  0  0  0  0
    5.0013   -3.7125    0.0000 C   0  0  0  0  0  0  0  0  0  0  0  0
    5.6687   -4.1974    0.0000 N   0  0  0  0  0  0  0  0  0  0  0  0
    5.4138   -4.9820    0.0000 C   0  0  0  0  0  0  0  0  0  0  0  0
    5.8987   -5.6495    0.0000 C   0  0  0  0  0  0  0  0  0  0  0  0
    4.5888   -4.9820    0.0000 C   0  0  0  0  0  0  0  0  0  0  0  0
    4.3339   -4.1974    0.0000 S   0  0  0  0  0  0  0  0  0  0  0  0
    4.1039   -5.6495    0.0000 C   0  0  0  0  0  0  0  0  0  0  0  0
    4.4394   -6.4032    0.0000 N   0  0  0  0  0  0  0  0  0  0  0  0
    3.9545   -7.0706    0.0000 C   0  0  0  0  0  0  0  0  0  0  0  0
    4.2901   -7.8243    0.0000 N   0  0  0  0  0  0  0  0  0  0  0  0
    5.1105   -7.9105    0.0000 C   0  0  0  0  0  0  0  0  0  0  0  0
    5.5955   -7.2431    0.0000 C   0  0  0  0  0  0  0  0  0  0  0  0
    6.4160   -7.3293    0.0000 C   0  0  0  0  0  0  0  0  0  0  0  0
    6.7515   -8.0830    0.0000 C   0  0  0  0  0  0  0  0  0  0  0  0
    6.2666   -8.7504    0.0000 C   0  0  0  0  0  0  0  0  0  0  0  0
    5.4461   -8.6642    0.0000 C   0  0  0  0  0  0  0  0  0  0  0  0
    6.6021   -9.5041    0.0000 C   0  0  0  0  0  0  0  0  0  0  0  0
    7.4226   -9.5903    0.0000 O   0  0  0  0  0  0  0  0  0  0  0  0
    6.1172  -10.1715    0.0000 N   0  0  0  0  0  0  0  0  0  0  0  0
    6.4528  -10.9252    0.0000 C   0  0  0  0  0  0  0  0  0  0  0  0
    5.9679  -11.5926    0.0000 C   0  0  0  0  0  0  0  0  0  0  0  0
    5.1474  -11.5064    0.0000 N   0  0  0  0  0  0  0  0  0  0  0  0
    4.6625  -12.1739    0.0000 C   0  0  0  0  0  0  0  0  0  0  0  0
    4.8118  -10.7527    0.0000 C   0  0  0  0  0  0  0  0  0  0  0  0
    5.2967  -10.0853    0.0000 C   0  0  0  0  0  0  0  0  0  0  0  0
    3.1340   -6.9844    0.0000 N   0  0  0  0  0  0  0  0  0  0  0  0
    2.7985   -6.2307    0.0000 C   0  0  0  0  0  0  0  0  0  0  0  0
    3.2834   -5.5632    0.0000 C   0  0  0  0  0  0  0  0  0  0  0  0
    2.9478   -4.8096    0.0000 C   0  0  0  0  0  0  0  0  0  0  0  0
    2.6123   -4.0559    0.0000 N   0  0  0  0  0  0  0  0  0  0  0  0
  1  2  1  0  0  0  0
  2  3  1  0  0  0  0
  3  4  4  0  0  0  0
  4  5  4  0  0  0  0
  5  6  1  0  0  0  0
  5  7  4  0  0  0  0
  7  8  4  0  0  0  0
  3  8  4  0  0  0  0
  7  9  1  0  0  0  0
  9 10  4  0  0  0  0
 10 11  4  0  0  0  0
 11 12  1  0  0  0  0
 12 13  1  0  0  0  0
 13 14  4  0  0  0  0
 14 15  4  0  0  0  0
 15 16  4  0  0  0  0
 16 17  4  0  0  0  0
 17 18  4  0  0  0  0
 13 18  4  0  0  0  0
 17 19  1  0  0  0  0
 19 20  2  0  0  0  0
 19 21  1  0  0  0  0
 21 22  1  0  0  0  0
 22 23  1  0  0  0  0
 23 24  1  0  0  0  0
 24 25  1  0  0  0  0
 24 26  1  0  0  0  0
 26 27  1  0  0  0  0
 21 27  1  0  0  0  0
 11 28  4  0  0  0  0
 28 29  4  0  0  0  0
 29 30  4  0  0  0  0
  9 30  4  0  0  0  0
 30 31  1  0  0  0  0
 31 32  3  0  0  0  0
M  END
> <BindingDB_ID/CHEMBL_ID>
50443443

> <pKi>
6.8

> <Target Name>
Cyclin-A2/Cyclin-dependent kinase 2

> <Target Source Organism>
Homo sapiens

> <Target Uniprot>
P24941

> <Article DOI>
10.1016/j.ejmech.2013.08.052

$$$$

  Mrv2316 09262419122D          

 34 37  0  0  0  0            999 V2000
    5.7158   -2.4750    0.0000 C   0  0  0  0  0  0  0  0  0  0  0  0
    5.0013   -2.8875    0.0000 N   0  0  0  0  0  0  0  0  0  0  0  0
    5.0013   -3.7125    0.0000 C   0  0  0  0  0  0  0  0  0  0  0  0
    5.6687   -4.1974    0.0000 N   0  0  0  0  0  0  0  0  0  0  0  0
    5.4138   -4.9820    0.0000 C   0  0  0  0  0  0  0  0  0  0  0  0
    5.8987   -5.6495    0.0000 C   0  0  0  0  0  0  0  0  0  0  0  0
    4.5888   -4.9820    0.0000 C   0  0  0  0  0  0  0  0  0  0  0  0
    4.3339   -4.1974    0.0000 S   0  0  0  0  0  0  0  0  0  0  0  0
    4.1039   -5.6495    0.0000 C   0  0  0  0  0  0  0  0  0  0  0  0
    4.4394   -6.4032    0.0000 N   0  0  0  0  0  0  0  0  0  0  0  0
    3.9545   -7.0706    0.0000 C   0  0  0  0  0  0  0  0  0  0  0  0
    4.2901   -7.8243    0.0000 N   0  0  0  0  0  0  0  0  0  0  0  0
    5.1105   -7.9105    0.0000 C   0  0  0  0  0  0  0  0  0  0  0  0
    5.5955   -7.2431    0.0000 C   0  0  0  0  0  0  0  0  0  0  0  0
    6.4160   -7.3293    0.0000 C   0  0  0  0  0  0  0  0  0  0  0  0
    6.7515   -8.0830    0.0000 C   0  0  0  0  0  0  0  0  0  0  0  0
    6.2666   -8.7504    0.0000 C   0  0  0  0  0  0  0  0  0  0  0  0
    5.4461   -8.6642    0.0000 C   0  0  0  0  0  0  0  0  0  0  0  0
    6.6021   -9.5041    0.0000 C   0  0  0  0  0  0  0  0  0  0  0  0
    7.4226   -9.5903    0.0000 O   0  0  0  0  0  0  0  0  0  0  0  0
    6.1172  -10.1715    0.0000 N   0  0  0  0  0  0  0  0  0  0  0  0
    6.4528  -10.9252    0.0000 C   0  0  0  0  0  0  0  0  0  0  0  0
    5.9679  -11.5926    0.0000 C   0  0  0  0  0  0  0  0  0  0  0  0
    5.1474  -11.5064    0.0000 N   0  0  0  0  0  0  0  0  0  0  0  0
    4.8118  -10.7527    0.0000 C   0  0  0  0  0  0  0  0  0  0  0  0
    5.2967  -10.0853    0.0000 C   0  0  0  0  0  0  0  0  0  0  0  0
    4.6625  -12.1739    0.0000 C   0  0  0  0  0  0  0  0  0  0  0  0
    4.9980  -12.9275    0.0000 C   0  0  0  0  0  0  0  0  0  0  0  0
    3.8420  -12.0876    0.0000 O   0  0  0  0  0  0  0  0  0  0  0  0
    3.1340   -6.9844    0.0000 N   0  0  0  0  0  0  0  0  0  0  0  0
    2.7985   -6.2307    0.0000 C   0  0  0  0  0  0  0  0  0  0  0  0
    3.2834   -5.5632    0.0000 C   0  0  0  0  0  0  0  0  0  0  0  0
    2.9478   -4.8096    0.0000 C   0  0  0  0  0  0  0  0  0  0  0  0
    2.6123   -4.0559    0.0000 N   0  0  0  0  0  0  0  0  0  0  0  0
  1  2  1  0  0  0  0
  2  3  1  0  0  0  0
  3  4  4  0  0  0  0
  4  5  4  0  0  0  0
  5  6  1  0  0  0  0
  5  7  4  0  0  0  0
  7  8  4  0  0  0  0
  3  8  4  0  0  0  0
  7  9  1  0  0  0  0
  9 10  4  0  0  0  0
 10 11  4  0  0  0  0
 11 12  1  0  0  0  0
 12 13  1  0  0  0  0
 13 14  4  0  0  0  0
 14 15  4  0  0  0  0
 15 16  4  0  0  0  0
 16 17  4  0  0  0  0
 17 18  4  0  0  0  0
 13 18  4  0  0  0  0
 17 19  1  0  0  0  0
 19 20  2  0  0  0  0
 19 21  1  0  0  0  0
 21 22  1  0  0  0  0
 22 23  1  0  0  0  0
 23 24  1  0  0  0  0
 24 25  1  0  0  0  0
 25 26  1  0  0  0  0
 21 26  1  0  0  0  0
 24 27  1  0  0  0  0
 27 28  1  0  0  0  0
 27 29  2  0  0  0  0
 11 30  4  0  0  0  0
 30 31  4  0  0  0  0
 31 32  4  0  0  0  0
  9 32  4  0  0  0  0
 32 33  1  0  0  0  0
 33 34  3  0  0  0  0
M  END
> <BindingDB_ID/CHEMBL_ID>
50443444

> <pKi>
6.9

> <Target Name>
Cyclin-A2/Cyclin-dependent kinase 2

> <Target Source Organism>
Homo sapiens

> <Target Uniprot>
P24941

> <Article DOI>
10.1016/j.ejmech.2013.08.052

$$$$

  Mrv2316 09262419122D          

 29 32  0  0  0  0            999 V2000
    7.7525    1.0527    0.0000 C   0  0  0  0  0  0  0  0  0  0  0  0
    7.0380    0.6402    0.0000 N   0  0  0  0  0  0  0  0  0  0  0  0
    7.0380   -0.1848    0.0000 C   0  0  0  0  0  0  0  0  0  0  0  0
    7.7054   -0.6697    0.0000 N   0  0  0  0  0  0  0  0  0  0  0  0
    7.4505   -1.4544    0.0000 C   0  0  0  0  0  0  0  0  0  0  0  0
    7.9354   -2.1218    0.0000 C   0  0  0  0  0  0  0  0  0  0  0  0
    6.6255   -1.4544    0.0000 C   0  0  0  0  0  0  0  0  0  0  0  0
    6.3706   -0.6697    0.0000 S   0  0  0  0  0  0  0  0  0  0  0  0
    6.1406   -2.1218    0.0000 C   0  0  0  0  0  0  0  0  0  0  0  0
    6.4761   -2.8755    0.0000 C   0  0  0  0  0  0  0  0  0  0  0  0
    5.9912   -3.5429    0.0000 C   0  0  0  0  0  0  0  0  0  0  0  0
    5.1707   -3.4567    0.0000 N   0  0  0  0  0  0  0  0  0  0  0  0
    4.8352   -2.7030    0.0000 C   0  0  0  0  0  0  0  0  0  0  0  0
    4.0147   -2.6168    0.0000 N   0  0  0  0  0  0  0  0  0  0  0  0
    3.5298   -3.2842    0.0000 C   0  0  0  0  0  0  0  0  0  0  0  0
    3.8653   -4.0379    0.0000 C   0  0  0  0  0  0  0  0  0  0  0  0
    3.3804   -4.7053    0.0000 C   0  0  0  0  0  0  0  0  0  0  0  0
    2.5599   -4.6191    0.0000 C   0  0  0  0  0  0  0  0  0  0  0  0
    2.2244   -3.8654    0.0000 C   0  0  0  0  0  0  0  0  0  0  0  0
    2.7093   -3.1980    0.0000 C   0  0  0  0  0  0  0  0  0  0  0  0
    1.4039   -3.7792    0.0000 C   0  0  0  0  0  0  0  0  0  0  0  0
    0.9190   -4.4466    0.0000 O   0  0  0  0  0  0  0  0  0  0  0  0
    1.0683   -3.0255    0.0000 N   0  0  0  0  0  0  0  0  0  0  0  0
    0.2479   -2.9393    0.0000 C   0  0  0  0  0  0  0  0  0  0  0  0
   -0.0877   -2.1856    0.0000 C   0  0  0  0  0  0  0  0  0  0  0  0
    0.3972   -1.5182    0.0000 O   0  0  0  0  0  0  0  0  0  0  0  0
    1.2177   -1.6044    0.0000 C   0  0  0  0  0  0  0  0  0  0  0  0
    1.5533   -2.3581    0.0000 C   0  0  0  0  0  0  0  0  0  0  0  0
    5.3201   -2.0356    0.0000 N   0  0  0  0  0  0  0  0  0  0  0  0
  1  2  1  0  0  0  0
  2  3  1  0  0  0  0
  3  4  4  0  0  0  0
  4  5  4  0  0  0  0
  5  6  1  0  0  0  0
  5  7  4  0  0  0  0
  7  8  4  0  0  0  0
  3  8  4  0  0  0  0
  7  9  1  0  0  0  0
  9 10  4  0  0  0  0
 10 11  4  0  0  0  0
 11 12  4  0  0  0  0
 12 13  4  0  0  0  0
 13 14  1  0  0  0  0
 14 15  1  0  0  0  0
 15 16  4  0  0  0  0
 16 17  4  0  0  0  0
 17 18  4  0  0  0  0
 18 19  4  0  0  0  0
 19 20  4  0  0  0  0
 15 20  4  0  0  0  0
 19 21  1  0  0  0  0
 21 22  2  0  0  0  0
 21 23  1  0  0  0  0
 23 24  1  0  0  0  0
 24 25  1  0  0  0  0
 25 26  1  0  0  0  0
 26 27  1  0  0  0  0
 27 28  1  0  0  0  0
 23 28  1  0  0  0  0
 13 29  4  0  0  0  0
  9 29  4  0  0  0  0
M  END
> <BindingDB_ID/CHEMBL_ID>
50443445

> <pKi>
6.3

> <Target Name>
Cyclin-A2/Cyclin-dependent kinase 2

> <Target Source Organism>
Homo sapiens

> <Target Uniprot>
P24941

> <Article DOI>
10.1016/j.ejmech.2013.08.052

$$$$

  Mrv2316 09262419122D          

 33 36  0  0  0  0            999 V2000
    0.8212   -4.5991    0.0000 C   0  0  0  0  0  0  0  0  0  0  0  0
    0.1067   -5.0116    0.0000 N   0  0  0  0  0  0  0  0  0  0  0  0
    0.1067   -5.8366    0.0000 C   0  0  0  0  0  0  0  0  0  0  0  0
    0.7741   -6.3215    0.0000 N   0  0  0  0  0  0  0  0  0  0  0  0
    0.5192   -7.1062    0.0000 C   0  0  0  0  0  0  0  0  0  0  0  0
    1.0041   -7.7736    0.0000 C   0  0  0  0  0  0  0  0  0  0  0  0
   -0.3058   -7.1062    0.0000 C   0  0  0  0  0  0  0  0  0  0  0  0
   -0.5607   -6.3215    0.0000 S   0  0  0  0  0  0  0  0  0  0  0  0
   -0.7907   -7.7736    0.0000 C   0  0  0  0  0  0  0  0  0  0  0  0
   -0.4552   -8.5273    0.0000 N   0  0  0  0  0  0  0  0  0  0  0  0
   -0.9401   -9.1947    0.0000 C   0  0  0  0  0  0  0  0  0  0  0  0
   -0.6045   -9.9484    0.0000 N   0  0  0  0  0  0  0  0  0  0  0  0
    0.2160  -10.0346    0.0000 C   0  0  0  0  0  0  0  0  0  0  0  0
    0.7009   -9.3672    0.0000 C   0  0  0  0  0  0  0  0  0  0  0  0
    1.5214   -9.4534    0.0000 C   0  0  0  0  0  0  0  0  0  0  0  0
    1.8569  -10.2071    0.0000 C   0  0  0  0  0  0  0  0  0  0  0  0
    1.3720  -10.8745    0.0000 C   0  0  0  0  0  0  0  0  0  0  0  0
    0.5515  -10.7883    0.0000 C   0  0  0  0  0  0  0  0  0  0  0  0
    1.7076  -11.6282    0.0000 S   0  0  0  0  0  0  0  0  0  0  0  0
    0.9539  -11.9638    0.0000 O   0  0  0  0  0  0  0  0  0  0  0  0
    2.4612  -11.2926    0.0000 O   0  0  0  0  0  0  0  0  0  0  0  0
    2.0431  -12.3819    0.0000 N   0  0  0  0  0  0  0  0  0  0  0  0
    2.8636  -12.4681    0.0000 C   0  0  0  0  0  0  0  0  0  0  0  0
    3.1991  -13.2218    0.0000 C   0  0  0  0  0  0  0  0  0  0  0  0
    2.7142  -13.8892    0.0000 N   0  0  0  0  0  0  0  0  0  0  0  0
    3.0498  -14.6429    0.0000 C   0  0  0  0  0  0  0  0  0  0  0  0
    1.8937  -13.8030    0.0000 C   0  0  0  0  0  0  0  0  0  0  0  0
    1.5582  -13.0493    0.0000 C   0  0  0  0  0  0  0  0  0  0  0  0
   -1.7606   -9.1085    0.0000 N   0  0  0  0  0  0  0  0  0  0  0  0
   -2.0961   -8.3548    0.0000 C   0  0  0  0  0  0  0  0  0  0  0  0
   -1.6112   -7.6874    0.0000 C   0  0  0  0  0  0  0  0  0  0  0  0
   -1.9468   -6.9337    0.0000 C   0  0  0  0  0  0  0  0  0  0  0  0
   -2.2823   -6.1800    0.0000 N   0  0  0  0  0  0  0  0  0  0  0  0
  1  2  1  0  0  0  0
  2  3  1  0  0  0  0
  3  4  4  0  0  0  0
  4  5  4  0  0  0  0
  5  6  1  0  0  0  0
  5  7  4  0  0  0  0
  7  8  4  0  0  0  0
  3  8  4  0  0  0  0
  7  9  1  0  0  0  0
  9 10  4  0  0  0  0
 10 11  4  0  0  0  0
 11 12  1  0  0  0  0
 12 13  1  0  0  0  0
 13 14  4  0  0  0  0
 14 15  4  0  0  0  0
 15 16  4  0  0  0  0
 16 17  4  0  0  0  0
 17 18  4  0  0  0  0
 13 18  4  0  0  0  0
 17 19  1  0  0  0  0
 19 20  2  0  0  0  0
 19 21  2  0  0  0  0
 19 22  1  0  0  0  0
 22 23  1  0  0  0  0
 23 24  1  0  0  0  0
 24 25  1  0  0  0  0
 25 26  1  0  0  0  0
 25 27  1  0  0  0  0
 27 28  1  0  0  0  0
 22 28  1  0  0  0  0
 11 29  4  0  0  0  0
 29 30  4  0  0  0  0
 30 31  4  0  0  0  0
  9 31  4  0  0  0  0
 31 32  1  0  0  0  0
 32 33  3  0  0  0  0
M  END
> <BindingDB_ID/CHEMBL_ID>
50443446

> <pKi>
6.2

> <Target Name>
Cyclin-A2/Cyclin-dependent kinase 2

> <Target Source Organism>
Homo sapiens

> <Target Uniprot>
P24941

> <Article DOI>
10.1016/j.ejmech.2013.08.052

$$$$

  Mrv2316 09262419122D          

 32 35  0  0  0  0            999 V2000
    0.8212   -4.5991    0.0000 C   0  0  0  0  0  0  0  0  0  0  0  0
    0.1067   -5.0116    0.0000 N   0  0  0  0  0  0  0  0  0  0  0  0
    0.1067   -5.8366    0.0000 C   0  0  0  0  0  0  0  0  0  0  0  0
    0.7741   -6.3215    0.0000 N   0  0  0  0  0  0  0  0  0  0  0  0
    0.5192   -7.1062    0.0000 C   0  0  0  0  0  0  0  0  0  0  0  0
    1.0041   -7.7736    0.0000 C   0  0  0  0  0  0  0  0  0  0  0  0
   -0.3058   -7.1062    0.0000 C   0  0  0  0  0  0  0  0  0  0  0  0
   -0.5607   -6.3215    0.0000 S   0  0  0  0  0  0  0  0  0  0  0  0
   -0.7907   -7.7736    0.0000 C   0  0  0  0  0  0  0  0  0  0  0  0
   -0.4552   -8.5273    0.0000 N   0  0  0  0  0  0  0  0  0  0  0  0
   -0.9401   -9.1947    0.0000 C   0  0  0  0  0  0  0  0  0  0  0  0
   -0.6045   -9.9484    0.0000 N   0  0  0  0  0  0  0  0  0  0  0  0
    0.2160  -10.0346    0.0000 C   0  0  0  0  0  0  0  0  0  0  0  0
    0.7009   -9.3672    0.0000 C   0  0  0  0  0  0  0  0  0  0  0  0
    1.5214   -9.4534    0.0000 C   0  0  0  0  0  0  0  0  0  0  0  0
    1.8569  -10.2071    0.0000 C   0  0  0  0  0  0  0  0  0  0  0  0
    2.6774  -10.2933    0.0000 C   0  0  0  0  0  0  0  0  0  0  0  0
    1.3720  -10.8745    0.0000 C   0  0  0  0  0  0  0  0  0  0  0  0
    0.5515  -10.7883    0.0000 C   0  0  0  0  0  0  0  0  0  0  0  0
    1.7076  -11.6282    0.0000 S   0  0  0  0  0  0  0  0  0  0  0  0
    0.9539  -11.9638    0.0000 O   0  0  0  0  0  0  0  0  0  0  0  0
    2.4612  -11.2926    0.0000 O   0  0  0  0  0  0  0  0  0  0  0  0
    2.0431  -12.3819    0.0000 N   0  0  0  0  0  0  0  0  0  0  0  0
    2.8636  -12.4681    0.0000 C   0  0  0  0  0  0  0  0  0  0  0  0
    3.1991  -13.2218    0.0000 C   0  0  0  0  0  0  0  0  0  0  0  0
    2.7142  -13.8892    0.0000 O   0  0  0  0  0  0  0  0  0  0  0  0
    1.8937  -13.8030    0.0000 C   0  0  0  0  0  0  0  0  0  0  0  0
    1.5582  -13.0493    0.0000 C   0  0  0  0  0  0  0  0  0  0  0  0
   -1.7606   -9.1085    0.0000 N   0  0  0  0  0  0  0  0  0  0  0  0
   -2.0961   -8.3548    0.0000 C   0  0  0  0  0  0  0  0  0  0  0  0
   -1.6112   -7.6874    0.0000 C   0  0  0  0  0  0  0  0  0  0  0  0
   -1.9468   -6.9337    0.0000 F   0  0  0  0  0  0  0  0  0  0  0  0
  1  2  1  0  0  0  0
  2  3  1  0  0  0  0
  3  4  4  0  0  0  0
  4  5  4  0  0  0  0
  5  6  1  0  0  0  0
  5  7  4  0  0  0  0
  7  8  4  0  0  0  0
  3  8  4  0  0  0  0
  7  9  1  0  0  0  0
  9 10  4  0  0  0  0
 10 11  4  0  0  0  0
 11 12  1  0  0  0  0
 12 13  1  0  0  0  0
 13 14  4  0  0  0  0
 14 15  4  0  0  0  0
 15 16  4  0  0  0  0
 16 17  1  0  0  0  0
 16 18  4  0  0  0  0
 18 19  4  0  0  0  0
 13 19  4  0  0  0  0
 18 20  1  0  0  0  0
 20 21  2  0  0  0  0
 20 22  2  0  0  0  0
 20 23  1  0  0  0  0
 23 24  1  0  0  0  0
 24 25  1  0  0  0  0
 25 26  1  0  0  0  0
 26 27  1  0  0  0  0
 27 28  1  0  0  0  0
 23 28  1  0  0  0  0
 11 29  4  0  0  0  0
 29 30  4  0  0  0  0
 30 31  4  0  0  0  0
  9 31  4  0  0  0  0
 31 32  1  0  0  0  0
M  END
> <BindingDB_ID/CHEMBL_ID>
50443447

> <pKi>
6.9

> <Target Name>
Cyclin-A2/Cyclin-dependent kinase 2

> <Target Source Organism>
Homo sapiens

> <Target Uniprot>
P24941

> <Article DOI>
10.1016/j.ejmech.2013.08.052

$$$$

  Mrv2316 09262419122D          

 32 35  0  0  0  0            999 V2000
    0.8212   -4.5991    0.0000 C   0  0  0  0  0  0  0  0  0  0  0  0
    0.1067   -5.0116    0.0000 N   0  0  0  0  0  0  0  0  0  0  0  0
    0.1067   -5.8366    0.0000 C   0  0  0  0  0  0  0  0  0  0  0  0
    0.7741   -6.3215    0.0000 N   0  0  0  0  0  0  0  0  0  0  0  0
    0.5192   -7.1062    0.0000 C   0  0  0  0  0  0  0  0  0  0  0  0
    1.0041   -7.7736    0.0000 C   0  0  0  0  0  0  0  0  0  0  0  0
   -0.3058   -7.1062    0.0000 C   0  0  0  0  0  0  0  0  0  0  0  0
   -0.5607   -6.3215    0.0000 S   0  0  0  0  0  0  0  0  0  0  0  0
   -0.7907   -7.7736    0.0000 C   0  0  0  0  0  0  0  0  0  0  0  0
   -0.4552   -8.5273    0.0000 N   0  0  0  0  0  0  0  0  0  0  0  0
   -0.9401   -9.1947    0.0000 C   0  0  0  0  0  0  0  0  0  0  0  0
   -0.6045   -9.9484    0.0000 N   0  0  0  0  0  0  0  0  0  0  0  0
    0.2160  -10.0346    0.0000 C   0  0  0  0  0  0  0  0  0  0  0  0
    0.7009   -9.3672    0.0000 C   0  0  0  0  0  0  0  0  0  0  0  0
    1.5214   -9.4534    0.0000 C   0  0  0  0  0  0  0  0  0  0  0  0
    1.8569  -10.2071    0.0000 C   0  0  0  0  0  0  0  0  0  0  0  0
    1.3720  -10.8745    0.0000 C   0  0  0  0  0  0  0  0  0  0  0  0
    0.5515  -10.7883    0.0000 C   0  0  0  0  0  0  0  0  0  0  0  0
    1.7076  -11.6282    0.0000 S   0  0  0  0  0  0  0  0  0  0  0  0
    0.9539  -11.9638    0.0000 O   0  0  0  0  0  0  0  0  0  0  0  0
    2.4612  -11.2926    0.0000 O   0  0  0  0  0  0  0  0  0  0  0  0
    2.0431  -12.3819    0.0000 N   0  0  0  0  0  0  0  0  0  0  0  0
    2.8636  -12.4681    0.0000 C   0  0  0  0  0  0  0  0  0  0  0  0
    3.1991  -13.2218    0.0000 C   0  0  0  0  0  0  0  0  0  0  0  0
    2.7142  -13.8892    0.0000 O   0  0  0  0  0  0  0  0  0  0  0  0
    1.8937  -13.8030    0.0000 C   0  0  0  0  0  0  0  0  0  0  0  0
    1.5582  -13.0493    0.0000 C   0  0  0  0  0  0  0  0  0  0  0  0
   -1.7606   -9.1085    0.0000 N   0  0  0  0  0  0  0  0  0  0  0  0
   -2.0961   -8.3548    0.0000 C   0  0  0  0  0  0  0  0  0  0  0  0
   -1.6112   -7.6874    0.0000 C   0  0  0  0  0  0  0  0  0  0  0  0
   -1.9468   -6.9337    0.0000 C   0  0  0  0  0  0  0  0  0  0  0  0
   -2.2823   -6.1800    0.0000 N   0  0  0  0  0  0  0  0  0  0  0  0
  1  2  1  0  0  0  0
  2  3  1  0  0  0  0
  3  4  4  0  0  0  0
  4  5  4  0  0  0  0
  5  6  1  0  0  0  0
  5  7  4  0  0  0  0
  7  8  4  0  0  0  0
  3  8  4  0  0  0  0
  7  9  1  0  0  0  0
  9 10  4  0  0  0  0
 10 11  4  0  0  0  0
 11 12  1  0  0  0  0
 12 13  1  0  0  0  0
 13 14  4  0  0  0  0
 14 15  4  0  0  0  0
 15 16  4  0  0  0  0
 16 17  4  0  0  0  0
 17 18  4  0  0  0  0
 13 18  4  0  0  0  0
 17 19  1  0  0  0  0
 19 20  2  0  0  0  0
 19 21  2  0  0  0  0
 19 22  1  0  0  0  0
 22 23  1  0  0  0  0
 23 24  1  0  0  0  0
 24 25  1  0  0  0  0
 25 26  1  0  0  0  0
 26 27  1  0  0  0  0
 22 27  1  0  0  0  0
 11 28  4  0  0  0  0
 28 29  4  0  0  0  0
 29 30  4  0  0  0  0
  9 30  4  0  0  0  0
 30 31  1  0  0  0  0
 31 32  3  0  0  0  0
M  END
> <BindingDB_ID/CHEMBL_ID>
50443448

> <pKi>
7.3

> <Target Name>
Cyclin-A2/Cyclin-dependent kinase 2

> <Target Source Organism>
Homo sapiens

> <Target Uniprot>
P24941

> <Article DOI>
10.1016/j.ejmech.2013.08.052

$$$$

  Mrv2316 09262419122D          

 30 32  0  0  0  0            999 V2000
   -2.0367    1.0527    0.0000 C   0  0  0  0  0  0  0  0  0  0  0  0
   -2.7512    0.6402    0.0000 N   0  0  0  0  0  0  0  0  0  0  0  0
   -2.7512   -0.1848    0.0000 C   0  0  0  0  0  0  0  0  0  0  0  0
   -2.0837   -0.6697    0.0000 N   0  0  0  0  0  0  0  0  0  0  0  0
   -2.3387   -1.4544    0.0000 C   0  0  0  0  0  0  0  0  0  0  0  0
   -1.8538   -2.1218    0.0000 C   0  0  0  0  0  0  0  0  0  0  0  0
   -3.1637   -1.4544    0.0000 C   0  0  0  0  0  0  0  0  0  0  0  0
   -3.4186   -0.6697    0.0000 S   0  0  0  0  0  0  0  0  0  0  0  0
   -3.6486   -2.1218    0.0000 C   0  0  0  0  0  0  0  0  0  0  0  0
   -3.3130   -2.8755    0.0000 N   0  0  0  0  0  0  0  0  0  0  0  0
   -3.7980   -3.5429    0.0000 C   0  0  0  0  0  0  0  0  0  0  0  0
   -3.4624   -4.2966    0.0000 N   0  0  0  0  0  0  0  0  0  0  0  0
   -2.6419   -4.3828    0.0000 C   0  0  0  0  0  0  0  0  0  0  0  0
   -2.1570   -3.7154    0.0000 C   0  0  0  0  0  0  0  0  0  0  0  0
   -1.3365   -3.8016    0.0000 C   0  0  0  0  0  0  0  0  0  0  0  0
   -1.0010   -4.5553    0.0000 C   0  0  0  0  0  0  0  0  0  0  0  0
   -1.4859   -5.2227    0.0000 C   0  0  0  0  0  0  0  0  0  0  0  0
   -2.3064   -5.1365    0.0000 C   0  0  0  0  0  0  0  0  0  0  0  0
   -1.1503   -5.9764    0.0000 S   0  0  0  0  0  0  0  0  0  0  0  0
   -1.9040   -6.3120    0.0000 O   0  0  0  0  0  0  0  0  0  0  0  0
   -0.3967   -5.6409    0.0000 O   0  0  0  0  0  0  0  0  0  0  0  0
   -0.8148   -6.7301    0.0000 N   0  0  0  0  0  0  0  0  0  0  0  0
   -1.2997   -7.3975    0.0000 C   0  0  0  0  0  0  0  0  0  0  0  0
   -0.9641   -8.1512    0.0000 C   0  0  0  0  0  0  0  0  0  0  0  0
   -1.4491   -8.8186    0.0000 O   0  0  0  0  0  0  0  0  0  0  0  0
   -1.1135   -9.5723    0.0000 C   0  0  0  0  0  0  0  0  0  0  0  0
   -4.6184   -3.4567    0.0000 N   0  0  0  0  0  0  0  0  0  0  0  0
   -4.9540   -2.7030    0.0000 C   0  0  0  0  0  0  0  0  0  0  0  0
   -4.4691   -2.0356    0.0000 C   0  0  0  0  0  0  0  0  0  0  0  0
   -4.8046   -1.2819    0.0000 F   0  0  0  0  0  0  0  0  0  0  0  0
  1  2  1  0  0  0  0
  2  3  1  0  0  0  0
  3  4  4  0  0  0  0
  4  5  4  0  0  0  0
  5  6  1  0  0  0  0
  5  7  4  0  0  0  0
  7  8  4  0  0  0  0
  3  8  4  0  0  0  0
  7  9  1  0  0  0  0
  9 10  4  0  0  0  0
 10 11  4  0  0  0  0
 11 12  1  0  0  0  0
 12 13  1  0  0  0  0
 13 14  4  0  0  0  0
 14 15  4  0  0  0  0
 15 16  4  0  0  0  0
 16 17  4  0  0  0  0
 17 18  4  0  0  0  0
 13 18  4  0  0  0  0
 17 19  1  0  0  0  0
 19 20  2  0  0  0  0
 19 21  2  0  0  0  0
 19 22  1  0  0  0  0
 22 23  1  0  0  0  0
 23 24  1  0  0  0  0
 24 25  1  0  0  0  0
 25 26  1  0  0  0  0
 11 27  4  0  0  0  0
 27 28  4  0  0  0  0
 28 29  4  0  0  0  0
  9 29  4  0  0  0  0
 29 30  1  0  0  0  0
M  END
> <BindingDB_ID/CHEMBL_ID>
50443449

> <pKi>
8.2

> <Target Name>
Cyclin-A2/Cyclin-dependent kinase 2

> <Target Source Organism>
Homo sapiens

> <Target Uniprot>
P24941

> <Article DOI>
10.1016/j.ejmech.2013.08.052

$$$$

  Mrv2316 09262419122D          

 31 33  0  0  0  0            999 V2000
   -2.0367    1.0527    0.0000 C   0  0  0  0  0  0  0  0  0  0  0  0
   -2.7512    0.6402    0.0000 N   0  0  0  0  0  0  0  0  0  0  0  0
   -2.7512   -0.1848    0.0000 C   0  0  0  0  0  0  0  0  0  0  0  0
   -2.0837   -0.6697    0.0000 N   0  0  0  0  0  0  0  0  0  0  0  0
   -2.3387   -1.4544    0.0000 C   0  0  0  0  0  0  0  0  0  0  0  0
   -1.8538   -2.1218    0.0000 C   0  0  0  0  0  0  0  0  0  0  0  0
   -3.1637   -1.4544    0.0000 C   0  0  0  0  0  0  0  0  0  0  0  0
   -3.4186   -0.6697    0.0000 S   0  0  0  0  0  0  0  0  0  0  0  0
   -3.6486   -2.1218    0.0000 C   0  0  0  0  0  0  0  0  0  0  0  0
   -3.3130   -2.8755    0.0000 N   0  0  0  0  0  0  0  0  0  0  0  0
   -3.7980   -3.5429    0.0000 C   0  0  0  0  0  0  0  0  0  0  0  0
   -3.4624   -4.2966    0.0000 N   0  0  0  0  0  0  0  0  0  0  0  0
   -2.6419   -4.3828    0.0000 C   0  0  0  0  0  0  0  0  0  0  0  0
   -2.1570   -3.7154    0.0000 C   0  0  0  0  0  0  0  0  0  0  0  0
   -1.3365   -3.8016    0.0000 C   0  0  0  0  0  0  0  0  0  0  0  0
   -1.0010   -4.5553    0.0000 C   0  0  0  0  0  0  0  0  0  0  0  0
   -1.4859   -5.2227    0.0000 C   0  0  0  0  0  0  0  0  0  0  0  0
   -2.3064   -5.1365    0.0000 C   0  0  0  0  0  0  0  0  0  0  0  0
   -1.1503   -5.9764    0.0000 S   0  0  0  0  0  0  0  0  0  0  0  0
   -1.9040   -6.3120    0.0000 O   0  0  0  0  0  0  0  0  0  0  0  0
   -0.3967   -5.6409    0.0000 O   0  0  0  0  0  0  0  0  0  0  0  0
   -0.8148   -6.7301    0.0000 N   0  0  0  0  0  0  0  0  0  0  0  0
   -1.2997   -7.3975    0.0000 C   0  0  0  0  0  0  0  0  0  0  0  0
   -0.9641   -8.1512    0.0000 C   0  0  0  0  0  0  0  0  0  0  0  0
   -1.4491   -8.8186    0.0000 O   0  0  0  0  0  0  0  0  0  0  0  0
   -1.1135   -9.5723    0.0000 C   0  0  0  0  0  0  0  0  0  0  0  0
   -4.6184   -3.4567    0.0000 N   0  0  0  0  0  0  0  0  0  0  0  0
   -4.9540   -2.7030    0.0000 C   0  0  0  0  0  0  0  0  0  0  0  0
   -4.4691   -2.0356    0.0000 C   0  0  0  0  0  0  0  0  0  0  0  0
   -4.8046   -1.2819    0.0000 C   0  0  0  0  0  0  0  0  0  0  0  0
   -5.1402   -0.5282    0.0000 N   0  0  0  0  0  0  0  0  0  0  0  0
  1  2  1  0  0  0  0
  2  3  1  0  0  0  0
  3  4  4  0  0  0  0
  4  5  4  0  0  0  0
  5  6  1  0  0  0  0
  5  7  4  0  0  0  0
  7  8  4  0  0  0  0
  3  8  4  0  0  0  0
  7  9  1  0  0  0  0
  9 10  4  0  0  0  0
 10 11  4  0  0  0  0
 11 12  1  0  0  0  0
 12 13  1  0  0  0  0
 13 14  4  0  0  0  0
 14 15  4  0  0  0  0
 15 16  4  0  0  0  0
 16 17  4  0  0  0  0
 17 18  4  0  0  0  0
 13 18  4  0  0  0  0
 17 19  1  0  0  0  0
 19 20  2  0  0  0  0
 19 21  2  0  0  0  0
 19 22  1  0  0  0  0
 22 23  1  0  0  0  0
 23 24  1  0  0  0  0
 24 25  1  0  0  0  0
 25 26  1  0  0  0  0
 11 27  4  0  0  0  0
 27 28  4  0  0  0  0
 28 29  4  0  0  0  0
  9 29  4  0  0  0  0
 29 30  1  0  0  0  0
 30 31  3  0  0  0  0
M  END
> <BindingDB_ID/CHEMBL_ID>
50443450

> <pKi>
7.7

> <Target Name>
Cyclin-A2/Cyclin-dependent kinase 2

> <Target Source Organism>
Homo sapiens

> <Target Uniprot>
P24941

> <Article DOI>
10.1016/j.ejmech.2013.08.052

$$$$

  Mrv2316 09262419122D          

 27 29  0  0  0  0            999 V2000
   -2.0367    1.0527    0.0000 C   0  0  0  0  0  0  0  0  0  0  0  0
   -2.7512    0.6402    0.0000 N   0  0  0  0  0  0  0  0  0  0  0  0
   -2.7512   -0.1848    0.0000 C   0  0  0  0  0  0  0  0  0  0  0  0
   -2.0837   -0.6697    0.0000 N   0  0  0  0  0  0  0  0  0  0  0  0
   -2.3387   -1.4544    0.0000 C   0  0  0  0  0  0  0  0  0  0  0  0
   -1.8538   -2.1218    0.0000 C   0  0  0  0  0  0  0  0  0  0  0  0
   -3.1637   -1.4544    0.0000 C   0  0  0  0  0  0  0  0  0  0  0  0
   -3.4186   -0.6697    0.0000 S   0  0  0  0  0  0  0  0  0  0  0  0
   -3.6486   -2.1218    0.0000 C   0  0  0  0  0  0  0  0  0  0  0  0
   -3.3130   -2.8755    0.0000 N   0  0  0  0  0  0  0  0  0  0  0  0
   -3.7980   -3.5429    0.0000 C   0  0  0  0  0  0  0  0  0  0  0  0
   -3.4624   -4.2966    0.0000 N   0  0  0  0  0  0  0  0  0  0  0  0
   -2.6419   -4.3828    0.0000 C   0  0  0  0  0  0  0  0  0  0  0  0
   -2.1570   -3.7154    0.0000 C   0  0  0  0  0  0  0  0  0  0  0  0
   -1.3365   -3.8016    0.0000 C   0  0  0  0  0  0  0  0  0  0  0  0
   -1.0010   -4.5553    0.0000 C   0  0  0  0  0  0  0  0  0  0  0  0
   -1.4859   -5.2227    0.0000 C   0  0  0  0  0  0  0  0  0  0  0  0
   -2.3064   -5.1365    0.0000 C   0  0  0  0  0  0  0  0  0  0  0  0
   -1.1503   -5.9764    0.0000 S   0  0  0  0  0  0  0  0  0  0  0  0
   -0.8148   -6.7301    0.0000 C   0  0  0  0  0  0  0  0  0  0  0  0
   -1.9040   -6.3120    0.0000 O   0  0  0  0  0  0  0  0  0  0  0  0
   -0.3967   -5.6409    0.0000 O   0  0  0  0  0  0  0  0  0  0  0  0
   -4.6184   -3.4567    0.0000 N   0  0  0  0  0  0  0  0  0  0  0  0
   -4.9540   -2.7030    0.0000 C   0  0  0  0  0  0  0  0  0  0  0  0
   -4.4691   -2.0356    0.0000 C   0  0  0  0  0  0  0  0  0  0  0  0
   -4.8046   -1.2819    0.0000 C   0  0  0  0  0  0  0  0  0  0  0  0
   -5.1402   -0.5282    0.0000 N   0  0  0  0  0  0  0  0  0  0  0  0
  1  2  1  0  0  0  0
  2  3  1  0  0  0  0
  3  4  4  0  0  0  0
  4  5  4  0  0  0  0
  5  6  1  0  0  0  0
  5  7  4  0  0  0  0
  7  8  4  0  0  0  0
  3  8  4  0  0  0  0
  7  9  1  0  0  0  0
  9 10  4  0  0  0  0
 10 11  4  0  0  0  0
 11 12  1  0  0  0  0
 12 13  1  0  0  0  0
 13 14  4  0  0  0  0
 14 15  4  0  0  0  0
 15 16  4  0  0  0  0
 16 17  4  0  0  0  0
 17 18  4  0  0  0  0
 13 18  4  0  0  0  0
 17 19  1  0  0  0  0
 19 20  1  0  0  0  0
 19 21  2  0  0  0  0
 19 22  2  0  0  0  0
 11 23  4  0  0  0  0
 23 24  4  0  0  0  0
 24 25  4  0  0  0  0
  9 25  4  0  0  0  0
 25 26  1  0  0  0  0
 26 27  3  0  0  0  0
M  END
> <BindingDB_ID/CHEMBL_ID>
50443451

> <pKi>
7.4

> <Target Name>
Cyclin-A2/Cyclin-dependent kinase 2

> <Target Source Organism>
Homo sapiens

> <Target Uniprot>
P24941

> <Article DOI>
10.1016/j.ejmech.2013.08.052

$$$$

  Mrv2316 09262419122D          

 28 31  0  0  0  0            999 V2000
   -2.2501    8.4777    0.0000 C   0  0  0  0  0  0  0  0  0  0  0  0
   -1.5356    8.0652    0.0000 N   0  0  0  0  0  0  0  0  0  0  0  0
   -0.8212    8.4777    0.0000 C   0  0  0  0  0  0  0  0  0  0  0  0
   -0.1067    8.0652    0.0000 C   0  0  0  0  0  0  0  0  0  0  0  0
   -0.1067    7.2402    0.0000 N   0  0  0  0  0  0  0  0  0  0  0  0
   -0.8212    6.8277    0.0000 C   0  0  0  0  0  0  0  0  0  0  0  0
   -1.5356    7.2402    0.0000 C   0  0  0  0  0  0  0  0  0  0  0  0
    0.6078    6.8277    0.0000 C   0  0  0  0  0  0  0  0  0  0  0  0
    1.3222    7.2402    0.0000 C   0  0  0  0  0  0  0  0  0  0  0  0
    2.0367    6.8277    0.0000 C   0  0  0  0  0  0  0  0  0  0  0  0
    2.0367    6.0027    0.0000 C   0  0  0  0  0  0  0  0  0  0  0  0
    1.3222    5.5902    0.0000 C   0  0  0  0  0  0  0  0  0  0  0  0
    1.3222    4.7652    0.0000 N   0  0  0  0  0  0  0  0  0  0  0  0
    2.0367    4.3527    0.0000 C   0  0  0  0  0  0  0  0  0  0  0  0
    2.7512    4.7652    0.0000 N   0  0  0  0  0  0  0  0  0  0  0  0
    3.4656    4.3527    0.0000 C   0  0  0  0  0  0  0  0  0  0  0  0
    3.4656    3.5277    0.0000 C   0  0  0  0  0  0  0  0  0  0  0  0
    4.1801    3.1152    0.0000 F   0  0  0  0  0  0  0  0  0  0  0  0
    2.7512    3.1152    0.0000 C   0  0  0  0  0  0  0  0  0  0  0  0
    2.0367    3.5277    0.0000 N   0  0  0  0  0  0  0  0  0  0  0  0
    2.7512    2.2902    0.0000 C   0  0  0  0  0  0  0  0  0  0  0  0
    3.4186    1.8053    0.0000 S   0  0  0  0  0  0  0  0  0  0  0  0
    3.1637    1.0206    0.0000 C   0  0  0  0  0  0  0  0  0  0  0  0
    3.6486    0.3532    0.0000 N   0  0  0  0  0  0  0  0  0  0  0  0
    2.3387    1.0206    0.0000 N   0  0  0  0  0  0  0  0  0  0  0  0
    2.0837    1.8053    0.0000 C   0  0  0  0  0  0  0  0  0  0  0  0
    1.2991    2.0602    0.0000 C   0  0  0  0  0  0  0  0  0  0  0  0
    0.6078    6.0027    0.0000 C   0  0  0  0  0  0  0  0  0  0  0  0
  1  2  1  0  0  0  0
  2  3  1  0  0  0  0
  3  4  1  0  0  0  0
  4  5  1  0  0  0  0
  5  6  1  0  0  0  0
  6  7  1  0  0  0  0
  2  7  1  0  0  0  0
  5  8  1  0  0  0  0
  8  9  4  0  0  0  0
  9 10  4  0  0  0  0
 10 11  4  0  0  0  0
 11 12  4  0  0  0  0
 12 13  1  0  0  0  0
 13 14  1  0  0  0  0
 14 15  4  0  0  0  0
 15 16  4  0  0  0  0
 16 17  4  0  0  0  0
 17 18  1  0  0  0  0
 17 19  4  0  0  0  0
 19 20  4  0  0  0  0
 14 20  4  0  0  0  0
 19 21  1  0  0  0  0
 21 22  4  0  0  0  0
 22 23  4  0  0  0  0
 23 24  1  0  0  0  0
 23 25  4  0  0  0  0
 25 26  4  0  0  0  0
 21 26  4  0  0  0  0
 26 27  1  0  0  0  0
 12 28  4  0  0  0  0
  8 28  4  0  0  0  0
M  END
> <BindingDB_ID/CHEMBL_ID>
50443452

> <pKi>
7.2

> <Target Name>
Cyclin-A2/Cyclin-dependent kinase 2

> <Target Source Organism>
Homo sapiens

> <Target Uniprot>
P24941

> <Article DOI>
10.1016/j.ejmech.2013.08.052

$$$$

  Mrv2316 09262419122D          

 29 32  0  0  0  0            999 V2000
    0.8212   -3.7741    0.0000 C   0  0  0  0  0  0  0  0  0  0  0  0
    0.1067   -4.1866    0.0000 N   0  0  0  0  0  0  0  0  0  0  0  0
    0.1067   -5.0116    0.0000 C   0  0  0  0  0  0  0  0  0  0  0  0
    0.7741   -5.4965    0.0000 N   0  0  0  0  0  0  0  0  0  0  0  0
    0.5192   -6.2812    0.0000 C   0  0  0  0  0  0  0  0  0  0  0  0
    1.0041   -6.9486    0.0000 C   0  0  0  0  0  0  0  0  0  0  0  0
   -0.3058   -6.2812    0.0000 C   0  0  0  0  0  0  0  0  0  0  0  0
   -0.5607   -5.4965    0.0000 S   0  0  0  0  0  0  0  0  0  0  0  0
   -0.7907   -6.9486    0.0000 C   0  0  0  0  0  0  0  0  0  0  0  0
   -0.4552   -7.7023    0.0000 N   0  0  0  0  0  0  0  0  0  0  0  0
   -0.9401   -8.3697    0.0000 C   0  0  0  0  0  0  0  0  0  0  0  0
   -0.6045   -9.1234    0.0000 N   0  0  0  0  0  0  0  0  0  0  0  0
    0.2160   -9.2096    0.0000 C   0  0  0  0  0  0  0  0  0  0  0  0
    0.7009   -8.5422    0.0000 C   0  0  0  0  0  0  0  0  0  0  0  0
    1.5214   -8.6284    0.0000 C   0  0  0  0  0  0  0  0  0  0  0  0
    1.8569   -9.3821    0.0000 C   0  0  0  0  0  0  0  0  0  0  0  0
    1.3720  -10.0495    0.0000 C   0  0  0  0  0  0  0  0  0  0  0  0
    0.5515   -9.9633    0.0000 C   0  0  0  0  0  0  0  0  0  0  0  0
    1.7076  -10.8032    0.0000 N   0  0  0  0  0  0  0  0  0  0  0  0
    2.5280  -10.8894    0.0000 C   0  0  0  0  0  0  0  0  0  0  0  0
    2.8636  -11.6431    0.0000 C   0  0  0  0  0  0  0  0  0  0  0  0
    2.3787  -12.3106    0.0000 N   0  0  0  0  0  0  0  0  0  0  0  0
    2.7142  -13.0642    0.0000 C   0  0  0  0  0  0  0  0  0  0  0  0
    1.5582  -12.2243    0.0000 C   0  0  0  0  0  0  0  0  0  0  0  0
    1.2226  -11.4706    0.0000 C   0  0  0  0  0  0  0  0  0  0  0  0
   -1.7606   -8.2835    0.0000 N   0  0  0  0  0  0  0  0  0  0  0  0
   -2.0961   -7.5298    0.0000 C   0  0  0  0  0  0  0  0  0  0  0  0
   -1.6112   -6.8624    0.0000 C   0  0  0  0  0  0  0  0  0  0  0  0
   -1.9468   -6.1087    0.0000 F   0  0  0  0  0  0  0  0  0  0  0  0
  1  2  1  0  0  0  0
  2  3  1  0  0  0  0
  3  4  4  0  0  0  0
  4  5  4  0  0  0  0
  5  6  1  0  0  0  0
  5  7  4  0  0  0  0
  7  8  4  0  0  0  0
  3  8  4  0  0  0  0
  7  9  1  0  0  0  0
  9 10  4  0  0  0  0
 10 11  4  0  0  0  0
 11 12  1  0  0  0  0
 12 13  1  0  0  0  0
 13 14  4  0  0  0  0
 14 15  4  0  0  0  0
 15 16  4  0  0  0  0
 16 17  4  0  0  0  0
 17 18  4  0  0  0  0
 13 18  4  0  0  0  0
 17 19  1  0  0  0  0
 19 20  1  0  0  0  0
 20 21  1  0  0  0  0
 21 22  1  0  0  0  0
 22 23  1  0  0  0  0
 22 24  1  0  0  0  0
 24 25  1  0  0  0  0
 19 25  1  0  0  0  0
 11 26  4  0  0  0  0
 26 27  4  0  0  0  0
 27 28  4  0  0  0  0
  9 28  4  0  0  0  0
 28 29  1  0  0  0  0
M  END
> <BindingDB_ID/CHEMBL_ID>
50443453

> <pKi>
7.4

> <Target Name>
Cyclin-A2/Cyclin-dependent kinase 2

> <Target Source Organism>
Homo sapiens

> <Target Uniprot>
P24941

> <Article DOI>
10.1016/j.ejmech.2013.08.052

$$$$

  Mrv2316 09262419122D          

 30 33  0  0  0  0            999 V2000
   -2.9646    8.0652    0.0000 C   0  0  0  0  0  0  0  0  0  0  0  0
   -2.2501    8.4777    0.0000 C   0  0  0  0  0  0  0  0  0  0  0  0
   -2.2501    9.3027    0.0000 O   0  0  0  0  0  0  0  0  0  0  0  0
   -1.5356    8.0652    0.0000 N   0  0  0  0  0  0  0  0  0  0  0  0
   -0.8212    8.4777    0.0000 C   0  0  0  0  0  0  0  0  0  0  0  0
   -0.1067    8.0652    0.0000 C   0  0  0  0  0  0  0  0  0  0  0  0
   -0.1067    7.2402    0.0000 N   0  0  0  0  0  0  0  0  0  0  0  0
   -0.8212    6.8277    0.0000 C   0  0  0  0  0  0  0  0  0  0  0  0
   -1.5356    7.2402    0.0000 C   0  0  0  0  0  0  0  0  0  0  0  0
    0.6078    6.8277    0.0000 C   0  0  0  0  0  0  0  0  0  0  0  0
    1.3222    7.2402    0.0000 C   0  0  0  0  0  0  0  0  0  0  0  0
    2.0367    6.8277    0.0000 C   0  0  0  0  0  0  0  0  0  0  0  0
    2.0367    6.0027    0.0000 C   0  0  0  0  0  0  0  0  0  0  0  0
    1.3222    5.5902    0.0000 C   0  0  0  0  0  0  0  0  0  0  0  0
    1.3222    4.7652    0.0000 N   0  0  0  0  0  0  0  0  0  0  0  0
    2.0367    4.3527    0.0000 C   0  0  0  0  0  0  0  0  0  0  0  0
    2.7512    4.7652    0.0000 N   0  0  0  0  0  0  0  0  0  0  0  0
    3.4656    4.3527    0.0000 C   0  0  0  0  0  0  0  0  0  0  0  0
    3.4656    3.5277    0.0000 C   0  0  0  0  0  0  0  0  0  0  0  0
    4.1801    3.1152    0.0000 F   0  0  0  0  0  0  0  0  0  0  0  0
    2.7512    3.1152    0.0000 C   0  0  0  0  0  0  0  0  0  0  0  0
    2.0367    3.5277    0.0000 N   0  0  0  0  0  0  0  0  0  0  0  0
    2.7512    2.2902    0.0000 C   0  0  0  0  0  0  0  0  0  0  0  0
    3.4186    1.8053    0.0000 S   0  0  0  0  0  0  0  0  0  0  0  0
    3.1637    1.0206    0.0000 C   0  0  0  0  0  0  0  0  0  0  0  0
    3.6486    0.3532    0.0000 N   0  0  0  0  0  0  0  0  0  0  0  0
    2.3387    1.0206    0.0000 N   0  0  0  0  0  0  0  0  0  0  0  0
    2.0837    1.8053    0.0000 C   0  0  0  0  0  0  0  0  0  0  0  0
    1.2991    2.0602    0.0000 C   0  0  0  0  0  0  0  0  0  0  0  0
    0.6078    6.0027    0.0000 C   0  0  0  0  0  0  0  0  0  0  0  0
  1  2  1  0  0  0  0
  2  3  2  0  0  0  0
  2  4  1  0  0  0  0
  4  5  1  0  0  0  0
  5  6  1  0  0  0  0
  6  7  1  0  0  0  0
  7  8  1  0  0  0  0
  8  9  1  0  0  0  0
  4  9  1  0  0  0  0
  7 10  1  0  0  0  0
 10 11  4  0  0  0  0
 11 12  4  0  0  0  0
 12 13  4  0  0  0  0
 13 14  4  0  0  0  0
 14 15  1  0  0  0  0
 15 16  1  0  0  0  0
 16 17  4  0  0  0  0
 17 18  4  0  0  0  0
 18 19  4  0  0  0  0
 19 20  1  0  0  0  0
 19 21  4  0  0  0  0
 21 22  4  0  0  0  0
 16 22  4  0  0  0  0
 21 23  1  0  0  0  0
 23 24  4  0  0  0  0
 24 25  4  0  0  0  0
 25 26  1  0  0  0  0
 25 27  4  0  0  0  0
 27 28  4  0  0  0  0
 23 28  4  0  0  0  0
 28 29  1  0  0  0  0
 14 30  4  0  0  0  0
 10 30  4  0  0  0  0
M  END
> <BindingDB_ID/CHEMBL_ID>
50443454

> <pKi>
7.1

> <Target Name>
Cyclin-A2/Cyclin-dependent kinase 2

> <Target Source Organism>
Homo sapiens

> <Target Uniprot>
P24941

> <Article DOI>
10.1016/j.ejmech.2013.08.052

$$$$

  Mrv2316 09262419122D          

 25 27  0  0  0  0            999 V2000
   -2.7512    0.6402    0.0000 C   0  0  0  0  0  0  0  0  0  0  0  0
   -2.7512   -0.1848    0.0000 C   0  0  0  0  0  0  0  0  0  0  0  0
   -2.0837   -0.6697    0.0000 N   0  0  0  0  0  0  0  0  0  0  0  0
   -2.3387   -1.4544    0.0000 C   0  0  0  0  0  0  0  0  0  0  0  0
   -1.8538   -2.1218    0.0000 N   0  0  0  0  0  0  0  0  0  0  0  0
   -3.1637   -1.4544    0.0000 S   0  0  0  0  0  0  0  0  0  0  0  0
   -3.4186   -0.6697    0.0000 C   0  0  0  0  0  0  0  0  0  0  0  0
   -4.2032   -0.4148    0.0000 C   0  0  0  0  0  0  0  0  0  0  0  0
   -4.8163   -0.9668    0.0000 N   0  0  0  0  0  0  0  0  0  0  0  0
   -5.6010   -0.7119    0.0000 C   0  0  0  0  0  0  0  0  0  0  0  0
   -6.2140   -1.2639    0.0000 N   0  0  0  0  0  0  0  0  0  0  0  0
   -6.0425   -2.0709    0.0000 C   0  0  0  0  0  0  0  0  0  0  0  0
   -5.2579   -2.3258    0.0000 C   0  0  0  0  0  0  0  0  0  0  0  0
   -5.0864   -3.1328    0.0000 C   0  0  0  0  0  0  0  0  0  0  0  0
   -5.6995   -3.6848    0.0000 C   0  0  0  0  0  0  0  0  0  0  0  0
   -6.4841   -3.4299    0.0000 C   0  0  0  0  0  0  0  0  0  0  0  0
   -6.6556   -2.6229    0.0000 C   0  0  0  0  0  0  0  0  0  0  0  0
   -7.0972   -3.9819    0.0000 S   0  0  0  0  0  0  0  0  0  0  0  0
   -7.7103   -4.5340    0.0000 N   0  0  0  0  0  0  0  0  0  0  0  0
   -7.6492   -3.3688    0.0000 O   0  0  0  0  0  0  0  0  0  0  0  0
   -6.5452   -4.5950    0.0000 O   0  0  0  0  0  0  0  0  0  0  0  0
   -5.7725    0.0951    0.0000 N   0  0  0  0  0  0  0  0  0  0  0  0
   -5.1594    0.6471    0.0000 C   0  0  0  0  0  0  0  0  0  0  0  0
   -4.3748    0.3922    0.0000 C   0  0  0  0  0  0  0  0  0  0  0  0
   -3.7617    0.9442    0.0000 F   0  0  0  0  0  0  0  0  0  0  0  0
  1  2  1  0  0  0  0
  2  3  4  0  0  0  0
  3  4  4  0  0  0  0
  4  5  1  0  0  0  0
  4  6  4  0  0  0  0
  6  7  4  0  0  0  0
  2  7  4  0  0  0  0
  7  8  1  0  0  0  0
  8  9  4  0  0  0  0
  9 10  4  0  0  0  0
 10 11  1  0  0  0  0
 11 12  1  0  0  0  0
 12 13  4  0  0  0  0
 13 14  4  0  0  0  0
 14 15  4  0  0  0  0
 15 16  4  0  0  0  0
 16 17  4  0  0  0  0
 12 17  4  0  0  0  0
 16 18  1  0  0  0  0
 18 19  1  0  0  0  0
 18 20  2  0  0  0  0
 18 21  2  0  0  0  0
 10 22  4  0  0  0  0
 22 23  4  0  0  0  0
 23 24  4  0  0  0  0
  8 24  4  0  0  0  0
 24 25  1  0  0  0  0
M  END
> <BindingDB_ID/CHEMBL_ID>
50443455

> <pKi>
8.5

> <Target Name>
Cyclin-A2/Cyclin-dependent kinase 2

> <Target Source Organism>
Homo sapiens

> <Target Uniprot>
P24941

> <Article DOI>
10.1016/j.ejmech.2013.08.052

$$$$

  Mrv2316 09262419122D          

 33 36  0  0  0  0            999 V2000
    1.5356   -5.0116    0.0000 C   0  0  0  0  0  0  0  0  0  0  0  0
    0.8212   -5.4241    0.0000 N   0  0  0  0  0  0  0  0  0  0  0  0
    0.8212   -6.2491    0.0000 C   0  0  0  0  0  0  0  0  0  0  0  0
    1.4886   -6.7340    0.0000 N   0  0  0  0  0  0  0  0  0  0  0  0
    1.2337   -7.5187    0.0000 C   0  0  0  0  0  0  0  0  0  0  0  0
    1.7186   -8.1861    0.0000 C   0  0  0  0  0  0  0  0  0  0  0  0
    0.4087   -7.5187    0.0000 C   0  0  0  0  0  0  0  0  0  0  0  0
    0.1537   -6.7340    0.0000 S   0  0  0  0  0  0  0  0  0  0  0  0
   -0.0762   -8.1861    0.0000 C   0  0  0  0  0  0  0  0  0  0  0  0
    0.2593   -8.9398    0.0000 N   0  0  0  0  0  0  0  0  0  0  0  0
   -0.2256   -9.6072    0.0000 C   0  0  0  0  0  0  0  0  0  0  0  0
    0.1099  -10.3609    0.0000 N   0  0  0  0  0  0  0  0  0  0  0  0
    0.9304  -10.4471    0.0000 C   0  0  0  0  0  0  0  0  0  0  0  0
    1.4153   -9.7797    0.0000 C   0  0  0  0  0  0  0  0  0  0  0  0
    2.2358   -9.8659    0.0000 C   0  0  0  0  0  0  0  0  0  0  0  0
    2.5714  -10.6196    0.0000 C   0  0  0  0  0  0  0  0  0  0  0  0
    2.0865  -11.2870    0.0000 C   0  0  0  0  0  0  0  0  0  0  0  0
    1.2660  -11.2008    0.0000 C   0  0  0  0  0  0  0  0  0  0  0  0
    2.4220  -12.0407    0.0000 C   0  0  0  0  0  0  0  0  0  0  0  0
    1.9371  -12.7081    0.0000 O   0  0  0  0  0  0  0  0  0  0  0  0
    3.2425  -12.1269    0.0000 N   0  0  0  0  0  0  0  0  0  0  0  0
    3.5781  -12.8806    0.0000 C   0  0  0  0  0  0  0  0  0  0  0  0
    4.3985  -12.9668    0.0000 C   0  0  0  0  0  0  0  0  0  0  0  0
    4.7341  -13.7205    0.0000 C   0  0  0  0  0  0  0  0  0  0  0  0
    4.2492  -14.3880    0.0000 N   0  0  0  0  0  0  0  0  0  0  0  0
    4.5847  -15.1416    0.0000 C   0  0  0  0  0  0  0  0  0  0  0  0
    3.4287  -14.3017    0.0000 C   0  0  0  0  0  0  0  0  0  0  0  0
    3.0931  -13.5481    0.0000 C   0  0  0  0  0  0  0  0  0  0  0  0
   -1.0461   -9.5210    0.0000 N   0  0  0  0  0  0  0  0  0  0  0  0
   -1.3816   -8.7673    0.0000 C   0  0  0  0  0  0  0  0  0  0  0  0
   -0.8967   -8.0999    0.0000 C   0  0  0  0  0  0  0  0  0  0  0  0
   -1.2323   -7.3462    0.0000 C   0  0  0  0  0  0  0  0  0  0  0  0
   -1.5678   -6.5925    0.0000 N   0  0  0  0  0  0  0  0  0  0  0  0
  1  2  1  0  0  0  0
  2  3  1  0  0  0  0
  3  4  4  0  0  0  0
  4  5  4  0  0  0  0
  5  6  1  0  0  0  0
  5  7  4  0  0  0  0
  7  8  4  0  0  0  0
  3  8  4  0  0  0  0
  7  9  1  0  0  0  0
  9 10  4  0  0  0  0
 10 11  4  0  0  0  0
 11 12  1  0  0  0  0
 12 13  1  0  0  0  0
 13 14  4  0  0  0  0
 14 15  4  0  0  0  0
 15 16  4  0  0  0  0
 16 17  4  0  0  0  0
 17 18  4  0  0  0  0
 13 18  4  0  0  0  0
 17 19  1  0  0  0  0
 19 20  2  0  0  0  0
 19 21  1  0  0  0  0
 21 22  1  0  0  0  0
 22 23  1  0  0  0  0
 23 24  1  0  0  0  0
 24 25  1  0  0  0  0
 25 26  1  0  0  0  0
 25 27  1  0  0  0  0
 27 28  1  0  0  0  0
 22 28  1  0  0  0  0
 11 29  4  0  0  0  0
 29 30  4  0  0  0  0
 30 31  4  0  0  0  0
  9 31  4  0  0  0  0
 31 32  1  0  0  0  0
 32 33  3  0  0  0  0
M  END
> <BindingDB_ID/CHEMBL_ID>
50443456

> <pKi>
6.5

> <Target Name>
Cyclin-A2/Cyclin-dependent kinase 2

> <Target Source Organism>
Homo sapiens

> <Target Uniprot>
P24941

> <Article DOI>
10.1016/j.ejmech.2013.08.052

$$$$

  Mrv2316 09262419122D          

 33 36  0  0  0  0            999 V2000
    3.5724   -6.1875    0.0000 C   0  0  0  0  0  0  0  0  0  0  0  0
    2.8579   -6.6000    0.0000 N   0  0  0  0  0  0  0  0  0  0  0  0
    2.8579   -7.4250    0.0000 C   0  0  0  0  0  0  0  0  0  0  0  0
    3.5253   -7.9099    0.0000 N   0  0  0  0  0  0  0  0  0  0  0  0
    3.2704   -8.6945    0.0000 C   0  0  0  0  0  0  0  0  0  0  0  0
    3.7553   -9.3620    0.0000 C   0  0  0  0  0  0  0  0  0  0  0  0
    2.4454   -8.6945    0.0000 C   0  0  0  0  0  0  0  0  0  0  0  0
    2.1904   -7.9099    0.0000 S   0  0  0  0  0  0  0  0  0  0  0  0
    1.9605   -9.3620    0.0000 C   0  0  0  0  0  0  0  0  0  0  0  0
    2.2960  -10.1157    0.0000 N   0  0  0  0  0  0  0  0  0  0  0  0
    1.8111  -10.7831    0.0000 C   0  0  0  0  0  0  0  0  0  0  0  0
    2.1467  -11.5368    0.0000 N   0  0  0  0  0  0  0  0  0  0  0  0
    1.6617  -12.2042    0.0000 C   0  0  0  0  0  0  0  0  0  0  0  0
    1.9973  -12.9579    0.0000 C   0  0  0  0  0  0  0  0  0  0  0  0
    1.5124  -13.6253    0.0000 C   0  0  0  0  0  0  0  0  0  0  0  0
    0.6919  -13.5391    0.0000 C   0  0  0  0  0  0  0  0  0  0  0  0
    0.3563  -12.7854    0.0000 C   0  0  0  0  0  0  0  0  0  0  0  0
    0.8413  -12.1180    0.0000 C   0  0  0  0  0  0  0  0  0  0  0  0
    0.2070  -14.2065    0.0000 C   0  0  0  0  0  0  0  0  0  0  0  0
   -0.6135  -14.1203    0.0000 O   0  0  0  0  0  0  0  0  0  0  0  0
    0.5425  -14.9602    0.0000 N   0  0  0  0  0  0  0  0  0  0  0  0
    0.0576  -15.6276    0.0000 C   0  0  0  0  0  0  0  0  0  0  0  0
    0.3932  -16.3813    0.0000 C   0  0  0  0  0  0  0  0  0  0  0  0
   -0.0918  -17.0488    0.0000 C   0  0  0  0  0  0  0  0  0  0  0  0
   -0.9122  -16.9625    0.0000 N   0  0  0  0  0  0  0  0  0  0  0  0
   -1.3972  -17.6300    0.0000 C   0  0  0  0  0  0  0  0  0  0  0  0
   -1.2478  -16.2088    0.0000 C   0  0  0  0  0  0  0  0  0  0  0  0
   -0.7629  -15.5414    0.0000 C   0  0  0  0  0  0  0  0  0  0  0  0
    0.9906  -10.6969    0.0000 N   0  0  0  0  0  0  0  0  0  0  0  0
    0.6551   -9.9432    0.0000 C   0  0  0  0  0  0  0  0  0  0  0  0
    1.1400   -9.2757    0.0000 C   0  0  0  0  0  0  0  0  0  0  0  0
    0.8044   -8.5221    0.0000 C   0  0  0  0  0  0  0  0  0  0  0  0
    0.4689   -7.7684    0.0000 N   0  0  0  0  0  0  0  0  0  0  0  0
  1  2  1  0  0  0  0
  2  3  1  0  0  0  0
  3  4  4  0  0  0  0
  4  5  4  0  0  0  0
  5  6  1  0  0  0  0
  5  7  4  0  0  0  0
  7  8  4  0  0  0  0
  3  8  4  0  0  0  0
  7  9  1  0  0  0  0
  9 10  4  0  0  0  0
 10 11  4  0  0  0  0
 11 12  1  0  0  0  0
 12 13  1  0  0  0  0
 13 14  4  0  0  0  0
 14 15  4  0  0  0  0
 15 16  4  0  0  0  0
 16 17  4  0  0  0  0
 17 18  4  0  0  0  0
 13 18  4  0  0  0  0
 16 19  1  0  0  0  0
 19 20  2  0  0  0  0
 19 21  1  0  0  0  0
 21 22  1  0  0  0  0
 22 23  1  0  0  0  0
 23 24  1  0  0  0  0
 24 25  1  0  0  0  0
 25 26  1  0  0  0  0
 25 27  1  0  0  0  0
 27 28  1  0  0  0  0
 22 28  1  0  0  0  0
 11 29  4  0  0  0  0
 29 30  4  0  0  0  0
 30 31  4  0  0  0  0
  9 31  4  0  0  0  0
 31 32  1  0  0  0  0
 32 33  3  0  0  0  0
M  END
> <BindingDB_ID/CHEMBL_ID>
50443457

> <pKi>
7.5

> <Target Name>
Cyclin-A2/Cyclin-dependent kinase 2

> <Target Source Organism>
Homo sapiens

> <Target Uniprot>
P24941

> <Article DOI>
10.1016/j.ejmech.2013.08.052

$$$$

  Mrv2316 09262419122D          

 32 35  0  0  0  0            999 V2000
    1.5356   -5.0116    0.0000 C   0  0  0  0  0  0  0  0  0  0  0  0
    0.8212   -5.4241    0.0000 N   0  0  0  0  0  0  0  0  0  0  0  0
    0.8212   -6.2491    0.0000 C   0  0  0  0  0  0  0  0  0  0  0  0
    1.4886   -6.7340    0.0000 N   0  0  0  0  0  0  0  0  0  0  0  0
    1.2337   -7.5187    0.0000 C   0  0  0  0  0  0  0  0  0  0  0  0
    1.7186   -8.1861    0.0000 C   0  0  0  0  0  0  0  0  0  0  0  0
    0.4087   -7.5187    0.0000 C   0  0  0  0  0  0  0  0  0  0  0  0
    0.1537   -6.7340    0.0000 S   0  0  0  0  0  0  0  0  0  0  0  0
   -0.0762   -8.1861    0.0000 C   0  0  0  0  0  0  0  0  0  0  0  0
    0.2593   -8.9398    0.0000 N   0  0  0  0  0  0  0  0  0  0  0  0
   -0.2256   -9.6072    0.0000 C   0  0  0  0  0  0  0  0  0  0  0  0
    0.1099  -10.3609    0.0000 N   0  0  0  0  0  0  0  0  0  0  0  0
    0.9304  -10.4471    0.0000 C   0  0  0  0  0  0  0  0  0  0  0  0
    1.4153   -9.7797    0.0000 C   0  0  0  0  0  0  0  0  0  0  0  0
    2.2358   -9.8659    0.0000 C   0  0  0  0  0  0  0  0  0  0  0  0
    2.5714  -10.6196    0.0000 C   0  0  0  0  0  0  0  0  0  0  0  0
    2.0865  -11.2870    0.0000 C   0  0  0  0  0  0  0  0  0  0  0  0
    1.2660  -11.2008    0.0000 C   0  0  0  0  0  0  0  0  0  0  0  0
    2.4220  -12.0407    0.0000 C   0  0  0  0  0  0  0  0  0  0  0  0
    1.9371  -12.7081    0.0000 O   0  0  0  0  0  0  0  0  0  0  0  0
    3.2425  -12.1269    0.0000 N   0  0  0  0  0  0  0  0  0  0  0  0
    3.5781  -12.8806    0.0000 C   0  0  0  0  0  0  0  0  0  0  0  0
    4.3985  -12.9668    0.0000 C   0  0  0  0  0  0  0  0  0  0  0  0
    4.7341  -13.7205    0.0000 C   0  0  0  0  0  0  0  0  0  0  0  0
    4.2492  -14.3880    0.0000 N   0  0  0  0  0  0  0  0  0  0  0  0
    4.5847  -15.1416    0.0000 C   0  0  0  0  0  0  0  0  0  0  0  0
    3.4287  -14.3017    0.0000 C   0  0  0  0  0  0  0  0  0  0  0  0
    3.0931  -13.5481    0.0000 C   0  0  0  0  0  0  0  0  0  0  0  0
   -1.0461   -9.5210    0.0000 N   0  0  0  0  0  0  0  0  0  0  0  0
   -1.3816   -8.7673    0.0000 C   0  0  0  0  0  0  0  0  0  0  0  0
   -0.8967   -8.0999    0.0000 C   0  0  0  0  0  0  0  0  0  0  0  0
   -1.2323   -7.3462    0.0000 F   0  0  0  0  0  0  0  0  0  0  0  0
  1  2  1  0  0  0  0
  2  3  1  0  0  0  0
  3  4  4  0  0  0  0
  4  5  4  0  0  0  0
  5  6  1  0  0  0  0
  5  7  4  0  0  0  0
  7  8  4  0  0  0  0
  3  8  4  0  0  0  0
  7  9  1  0  0  0  0
  9 10  4  0  0  0  0
 10 11  4  0  0  0  0
 11 12  1  0  0  0  0
 12 13  1  0  0  0  0
 13 14  4  0  0  0  0
 14 15  4  0  0  0  0
 15 16  4  0  0  0  0
 16 17  4  0  0  0  0
 17 18  4  0  0  0  0
 13 18  4  0  0  0  0
 17 19  1  0  0  0  0
 19 20  2  0  0  0  0
 19 21  1  0  0  0  0
 21 22  1  0  0  0  0
 22 23  1  0  0  0  0
 23 24  1  0  0  0  0
 24 25  1  0  0  0  0
 25 26  1  0  0  0  0
 25 27  1  0  0  0  0
 27 28  1  0  0  0  0
 22 28  1  0  0  0  0
 11 29  4  0  0  0  0
 29 30  4  0  0  0  0
 30 31  4  0  0  0  0
  9 31  4  0  0  0  0
 31 32  1  0  0  0  0
M  END
> <BindingDB_ID/CHEMBL_ID>
50443458

> <pKi>
6.6

> <Target Name>
Cyclin-A2/Cyclin-dependent kinase 2

> <Target Source Organism>
Homo sapiens

> <Target Uniprot>
P24941

> <Article DOI>
10.1016/j.ejmech.2013.08.052

$$$$

  Mrv2316 09262419122D          

 29 32  0  0  0  0            999 V2000
    0.7028   -8.9733    0.0000 C   0  0  0  0  0  0  0  0  0  0  0  0
    0.6166   -8.1528    0.0000 S   0  0  0  0  0  0  0  0  0  0  0  0
    1.4371   -8.0666    0.0000 O   0  0  0  0  0  0  0  0  0  0  0  0
   -0.2039   -8.2391    0.0000 O   0  0  0  0  0  0  0  0  0  0  0  0
    0.5303   -7.3323    0.0000 N   0  0  0  0  0  0  0  0  0  0  0  0
   -0.2233   -6.9968    0.0000 C   0  0  0  0  0  0  0  0  0  0  0  0
   -0.8908   -7.4817    0.0000 C   0  0  0  0  0  0  0  0  0  0  0  0
   -1.6444   -7.1462    0.0000 C   0  0  0  0  0  0  0  0  0  0  0  0
   -1.7307   -6.3257    0.0000 C   0  0  0  0  0  0  0  0  0  0  0  0
   -1.0632   -5.8407    0.0000 C   0  0  0  0  0  0  0  0  0  0  0  0
   -1.1495   -5.0203    0.0000 C   0  0  0  0  0  0  0  0  0  0  0  0
   -0.4820   -4.5353    0.0000 C   0  0  0  0  0  0  0  0  0  0  0  0
    0.2716   -4.8709    0.0000 O   0  0  0  0  0  0  0  0  0  0  0  0
   -0.5683   -3.7149    0.0000 N   0  0  0  0  0  0  0  0  0  0  0  0
    0.0992   -3.2299    0.0000 C   0  0  0  0  0  0  0  0  0  0  0  0
    0.0992   -2.4049    0.0000 N   0  0  0  0  0  0  0  0  0  0  0  0
    0.8838   -2.1500    0.0000 C   0  0  0  0  0  0  0  0  0  0  0  0
    1.3687   -2.8174    0.0000 C   0  0  0  0  0  0  0  0  0  0  0  0
    0.8838   -3.4849    0.0000 S   0  0  0  0  0  0  0  0  0  0  0  0
    1.1387   -1.3654    0.0000 C   0  0  0  0  0  0  0  0  0  0  0  0
    0.6538   -0.6979    0.0000 C   0  0  0  0  0  0  0  0  0  0  0  0
    1.1387   -0.0305    0.0000 N   0  0  0  0  0  0  0  0  0  0  0  0
    1.9233   -0.2854    0.0000 C   0  0  0  0  0  0  0  0  0  0  0  0
    2.6378    0.1271    0.0000 N   0  0  0  0  0  0  0  0  0  0  0  0
    3.3523   -0.2854    0.0000 C   0  0  0  0  0  0  0  0  0  0  0  0
    3.3523   -1.1104    0.0000 C   0  0  0  0  0  0  0  0  0  0  0  0
    2.6378   -1.5229    0.0000 C   0  0  0  0  0  0  0  0  0  0  0  0
    1.9233   -1.1104    0.0000 C   0  0  0  0  0  0  0  0  0  0  0  0
   -0.3096   -6.1763    0.0000 C   0  0  0  0  0  0  0  0  0  0  0  0
  1  2  1  0  0  0  0
  2  3  2  0  0  0  0
  2  4  2  0  0  0  0
  2  5  1  0  0  0  0
  5  6  1  0  0  0  0
  6  7  4  0  0  0  0
  7  8  4  0  0  0  0
  8  9  4  0  0  0  0
  9 10  4  0  0  0  0
 10 11  1  0  0  0  0
 11 12  1  0  0  0  0
 12 13  2  0  0  0  0
 12 14  1  0  0  0  0
 14 15  1  0  0  0  0
 15 16  4  0  0  0  0
 16 17  4  0  0  0  0
 17 18  4  0  0  0  0
 18 19  4  0  0  0  0
 15 19  4  0  0  0  0
 17 20  1  0  0  0  0
 20 21  4  0  0  0  0
 21 22  4  0  0  0  0
 22 23  4  0  0  0  0
 23 24  4  0  0  0  0
 24 25  4  0  0  0  0
 25 26  4  0  0  0  0
 26 27  4  0  0  0  0
 27 28  4  0  0  0  0
 20 28  4  0  0  0  0
 23 28  4  0  0  0  0
 10 29  4  0  0  0  0
  6 29  4  0  0  0  0
M  STY  1   1 DAT
M  SAL   1  1  22
M  SDT   1 MRV_IMPLICIT_H                                        
M  SDD   1     0.5304   -0.4125    DR    ALL  0       0  
M  SED   1 IMPL_H1
M  END
> <BindingDB_ID/CHEMBL_ID>
50463479

> <pKi>
5.8

> <Target Name>
Cyclin-A2/Cyclin-dependent kinase 2

> <Target Source Organism>
Homo sapiens

> <Target Uniprot>
P24941

> <Article DOI>
10.1016/j.bmcl.2018.06.040

$$$$

  Mrv2316 09262419122D          

 38 41  0  0  0  0            999 V2000
    2.1434   -3.7125    0.0000 C   0  0  0  0  0  0  0  0  0  0  0  0
    2.1434   -2.8875    0.0000 C   0  0  0  0  0  0  0  0  0  0  0  0
    1.4289   -2.4750    0.0000 O   0  0  0  0  0  0  0  0  0  0  0  0
    0.7145   -2.8875    0.0000 C   0  0  0  0  0  0  0  0  0  0  0  0
    0.7145   -3.7125    0.0000 C   0  0  0  0  0  0  0  0  0  0  0  0
    0.0000   -4.1250    0.0000 C   0  0  0  0  0  0  0  0  0  0  0  0
   -0.7145   -3.7125    0.0000 C   0  0  0  0  0  0  0  0  0  0  0  0
   -0.7145   -2.8875    0.0000 C   0  0  0  0  0  0  0  0  0  0  0  0
    0.0000   -2.4750    0.0000 C   0  0  0  0  0  0  0  0  0  0  0  0
    0.0000   -1.6500    0.0000 N   0  0  0  0  0  0  0  0  0  0  0  0
    0.7145   -1.2375    0.0000 C   0  0  0  0  0  0  0  0  0  0  0  0
    0.7145   -0.4125    0.0000 N   0  0  0  0  0  0  0  0  0  0  0  0
    1.4289    0.0000    0.0000 C   0  0  0  0  0  0  0  0  0  0  0  0
    2.1434   -0.4125    0.0000 C   0  0  0  0  0  0  0  0  0  0  0  0
    2.8579    0.0000    0.0000 C   0  0  0  0  0  0  0  0  0  0  0  0
    3.5724   -0.4125    0.0000 C   0  0  0  0  0  0  0  0  0  0  0  0
    4.2868   -0.0000    0.0000 C   0  0  0  0  0  0  0  0  0  0  0  0
    3.5724   -1.2375    0.0000 N   0  0  0  0  0  0  0  0  0  0  0  0
    2.8579   -1.6500    0.0000 C   0  0  0  0  0  0  0  0  0  0  0  0
    2.8579   -2.4750    0.0000 N   0  0  0  0  0  0  0  0  0  0  0  0
    3.5724   -2.8875    0.0000 C   0  0  0  0  0  0  0  0  0  0  0  0
    3.5724   -3.7125    0.0000 C   0  0  0  0  0  0  0  0  0  0  0  0
    3.5724   -4.5375    0.0000 C   0  0  0  0  0  0  0  0  0  0  0  0
    4.3974   -3.7125    0.0000 C   0  0  0  0  0  0  0  0  0  0  0  0
    2.7474   -3.7125    0.0000 C   0  0  0  0  0  0  0  0  0  0  0  0
    2.1434   -1.2375    0.0000 C   0  0  0  0  0  0  0  0  0  0  0  0
    1.4289   -1.6500    0.0000 N   0  0  0  0  0  0  0  0  0  0  0  0
   -0.0000   -4.9500    0.0000 C   0  0  0  0  0  0  0  0  0  0  0  0
   -0.6674   -5.4349    0.0000 N   0  0  0  0  0  0  0  0  0  0  0  0
   -0.4125   -6.2195    0.0000 N   0  0  0  0  0  0  0  0  0  0  0  0
    0.4125   -6.2195    0.0000 C   0  0  0  0  0  0  0  0  0  0  0  0
    0.8974   -6.8870    0.0000 C   0  0  0  0  0  0  0  0  0  0  0  0
    1.7179   -6.8007    0.0000 C   0  0  0  0  0  0  0  0  0  0  0  0
    2.2028   -7.4682    0.0000 N   0  0  0  0  0  0  0  0  0  0  0  0
    1.8673   -8.2219    0.0000 C   0  0  0  0  0  0  0  0  0  0  0  0
    3.0233   -7.3820    0.0000 C   0  0  0  0  0  0  0  0  0  0  0  0
    0.6674   -5.4349    0.0000 N   0  0  0  0  0  0  0  0  0  0  0  0
    1.4521   -5.1800    0.0000 C   0  0  0  0  0  0  0  0  0  0  0  0
  1  2  1  0  0  0  0
  2  3  1  0  0  0  0
  3  4  1  0  0  0  0
  4  5  4  0  0  0  0
  5  6  4  0  0  0  0
  6  7  4  0  0  0  0
  7  8  4  0  0  0  0
  8  9  4  0  0  0  0
  4  9  4  0  0  0  0
  9 10  1  0  0  0  0
 10 11  1  0  0  0  0
 11 12  4  0  0  0  0
 12 13  4  0  0  0  0
 13 14  4  0  0  0  0
 14 15  4  0  0  0  0
 15 16  4  0  0  0  0
 16 17  1  0  0  0  0
 16 18  4  0  0  0  0
 18 19  4  0  0  0  0
 19 20  1  0  0  0  0
 20 21  1  0  0  0  0
 21 22  1  0  0  0  0
 22 23  1  0  0  0  0
 22 24  1  0  0  0  0
 22 25  1  0  0  0  0
 19 26  4  0  0  0  0
 14 26  4  0  0  0  0
 26 27  4  0  0  0  0
 11 27  4  0  0  0  0
  6 28  1  0  0  0  0
 28 29  4  0  0  0  0
 29 30  4  0  0  0  0
 30 31  4  0  0  0  0
 31 32  1  0  0  0  0
 32 33  1  0  0  0  0
 33 34  1  0  0  0  0
 34 35  1  0  0  0  0
 34 36  1  0  0  0  0
 31 37  4  0  0  0  0
 28 37  4  0  0  0  0
 37 38  1  0  0  0  0
M  END
> <BindingDB_ID/CHEMBL_ID>
50464037

> <pKi>
6.7

> <Target Name>
Cyclin-A2/Cyclin-dependent kinase 2

> <Target Source Organism>
Homo sapiens

> <Target Uniprot>
P24941

> <Article DOI>
10.1021/acs.jmedchem.8b00690

$$$$

  Mrv2316 09262419122D          

 33 37  0  0  0  0            999 V2000
   -2.8579   -2.4750    0.0000 C   0  0  0  0  0  0  0  0  0  0  0  0
   -2.1434   -2.8875    0.0000 C   0  0  0  0  0  0  0  0  0  0  0  0
   -1.4289   -2.4750    0.0000 O   0  0  0  0  0  0  0  0  0  0  0  0
   -0.7145   -2.8875    0.0000 C   0  0  0  0  0  0  0  0  0  0  0  0
   -0.7145   -3.7125    0.0000 C   0  0  0  0  0  0  0  0  0  0  0  0
    0.0000   -4.1250    0.0000 C   0  0  0  0  0  0  0  0  0  0  0  0
    0.7145   -3.7125    0.0000 C   0  0  0  0  0  0  0  0  0  0  0  0
    0.7145   -2.8875    0.0000 C   0  0  0  0  0  0  0  0  0  0  0  0
    0.0000   -2.4750    0.0000 C   0  0  0  0  0  0  0  0  0  0  0  0
    0.0000   -1.6500    0.0000 N   0  0  0  0  0  0  0  0  0  0  0  0
    0.7145   -1.2375    0.0000 C   0  0  0  0  0  0  0  0  0  0  0  0
    0.7145   -0.4125    0.0000 N   0  0  0  0  0  0  0  0  0  0  0  0
    1.4289    0.0000    0.0000 C   0  0  0  0  0  0  0  0  0  0  0  0
    2.1434   -0.4125    0.0000 C   0  0  0  0  0  0  0  0  0  0  0  0
    2.8579    0.0000    0.0000 C   0  0  0  0  0  0  0  0  0  0  0  0
    3.5724   -0.4125    0.0000 C   0  0  0  0  0  0  0  0  0  0  0  0
    4.2868   -0.0000    0.0000 C   0  0  0  0  0  0  0  0  0  0  0  0
    3.5724   -1.2375    0.0000 N   0  0  0  0  0  0  0  0  0  0  0  0
    2.8579   -1.6500    0.0000 C   0  0  0  0  0  0  0  0  0  0  0  0
    2.8579   -2.4750    0.0000 N   0  0  0  0  0  0  0  0  0  0  0  0
    3.4412   -3.0584    0.0000 C   0  0  0  0  0  0  0  0  0  0  0  0
    2.8579   -3.6417    0.0000 C   0  0  0  0  0  0  0  0  0  0  0  0
    3.4412   -4.2251    0.0000 C   0  0  0  0  0  0  0  0  0  0  0  0
    2.2745   -4.2251    0.0000 C   0  0  0  0  0  0  0  0  0  0  0  0
    2.2745   -3.0584    0.0000 C   0  0  0  0  0  0  0  0  0  0  0  0
    2.1434   -1.2375    0.0000 C   0  0  0  0  0  0  0  0  0  0  0  0
    1.4289   -1.6500    0.0000 N   0  0  0  0  0  0  0  0  0  0  0  0
    0.0000   -4.9500    0.0000 C   0  0  0  0  0  0  0  0  0  0  0  0
   -0.6674   -5.4349    0.0000 N   0  0  0  0  0  0  0  0  0  0  0  0
   -0.4125   -6.2195    0.0000 N   0  0  0  0  0  0  0  0  0  0  0  0
    0.4125   -6.2195    0.0000 C   0  0  0  0  0  0  0  0  0  0  0  0
    0.6674   -5.4349    0.0000 N   0  0  0  0  0  0  0  0  0  0  0  0
    1.4521   -5.1800    0.0000 C   0  0  0  0  0  0  0  0  0  0  0  0
  1  2  1  0  0  0  0
  2  3  1  0  0  0  0
  3  4  1  0  0  0  0
  4  5  4  0  0  0  0
  5  6  4  0  0  0  0
  6  7  4  0  0  0  0
  7  8  4  0  0  0  0
  8  9  4  0  0  0  0
  4  9  4  0  0  0  0
  9 10  1  0  0  0  0
 10 11  1  0  0  0  0
 11 12  4  0  0  0  0
 12 13  4  0  0  0  0
 13 14  4  0  0  0  0
 14 15  4  0  0  0  0
 15 16  4  0  0  0  0
 16 17  1  0  0  0  0
 16 18  4  0  0  0  0
 18 19  4  0  0  0  0
 19 20  1  0  0  0  0
 20 21  1  0  0  0  0
 21 22  1  0  0  0  0
 22 23  1  0  0  0  0
 22 24  1  0  0  0  0
 22 25  1  0  0  0  0
 20 25  1  0  0  0  0
 19 26  4  0  0  0  0
 14 26  4  0  0  0  0
 26 27  4  0  0  0  0
 11 27  4  0  0  0  0
  6 28  1  0  0  0  0
 28 29  4  0  0  0  0
 29 30  4  0  0  0  0
 30 31  4  0  0  0  0
 31 32  4  0  0  0  0
 28 32  4  0  0  0  0
 32 33  1  0  0  0  0
M  END
> <BindingDB_ID/CHEMBL_ID>
50464039

> <pKi>
6.1

> <Target Name>
Cyclin-A2/Cyclin-dependent kinase 2

> <Target Source Organism>
Homo sapiens

> <Target Uniprot>
P24941

> <Article DOI>
10.1021/acs.jmedchem.8b00690

$$$$

  Mrv2316 09262419122D          

 34 38  0  0  0  0            999 V2000
    3.4308   -1.6157    0.0000 C   0  0  0  0  0  0  0  0  0  0  0  0
    3.9828   -2.2288    0.0000 O   0  0  0  0  0  0  0  0  0  0  0  0
    4.7898   -2.0573    0.0000 C   0  0  0  0  0  0  0  0  0  0  0  0
    5.0448   -1.2727    0.0000 C   0  0  0  0  0  0  0  0  0  0  0  0
    5.8517   -1.1012    0.0000 C   0  0  0  0  0  0  0  0  0  0  0  0
    6.4038   -1.7143    0.0000 C   0  0  0  0  0  0  0  0  0  0  0  0
    6.1488   -2.4989    0.0000 C   0  0  0  0  0  0  0  0  0  0  0  0
    5.3419   -2.6704    0.0000 C   0  0  0  0  0  0  0  0  0  0  0  0
    5.0869   -3.4550    0.0000 N   0  0  0  0  0  0  0  0  0  0  0  0
    4.2799   -3.6266    0.0000 C   0  0  0  0  0  0  0  0  0  0  0  0
    4.0250   -4.4112    0.0000 N   0  0  0  0  0  0  0  0  0  0  0  0
    3.2180   -4.5827    0.0000 C   0  0  0  0  0  0  0  0  0  0  0  0
    2.6660   -3.9696    0.0000 C   0  0  0  0  0  0  0  0  0  0  0  0
    1.8590   -4.1411    0.0000 C   0  0  0  0  0  0  0  0  0  0  0  0
    1.3070   -3.5280    0.0000 C   0  0  0  0  0  0  0  0  0  0  0  0
    0.5000   -3.6996    0.0000 C   0  0  0  0  0  0  0  0  0  0  0  0
    1.5619   -2.7434    0.0000 N   0  0  0  0  0  0  0  0  0  0  0  0
    2.3689   -2.5719    0.0000 C   0  0  0  0  0  0  0  0  0  0  0  0
    2.6238   -1.7873    0.0000 N   0  0  0  0  0  0  0  0  0  0  0  0
    2.0718   -1.1742    0.0000 C   0  0  0  0  0  0  0  0  0  0  0  0
    2.3267   -0.3896    0.0000 C   0  0  0  0  0  0  0  0  0  0  0  0
    2.5817    0.3951    0.0000 C   0  0  0  0  0  0  0  0  0  0  0  0
    1.5421   -0.1346    0.0000 C   0  0  0  0  0  0  0  0  0  0  0  0
    3.1114   -0.6445    0.0000 C   0  0  0  0  0  0  0  0  0  0  0  0
    2.9209   -3.1850    0.0000 C   0  0  0  0  0  0  0  0  0  0  0  0
    3.7279   -3.0135    0.0000 N   0  0  0  0  0  0  0  0  0  0  0  0
    6.1067   -0.3165    0.0000 C   0  0  0  0  0  0  0  0  0  0  0  0
    5.6217    0.3509    0.0000 N   0  0  0  0  0  0  0  0  0  0  0  0
    6.1067    1.0183    0.0000 N   0  0  0  0  0  0  0  0  0  0  0  0
    6.8913    0.7634    0.0000 C   0  0  0  0  0  0  0  0  0  0  0  0
    7.6759    1.0183    0.0000 C   0  0  0  0  0  0  0  0  0  0  0  0
    8.1608    0.3509    0.0000 C   0  0  0  0  0  0  0  0  0  0  0  0
    7.6759   -0.3165    0.0000 C   0  0  0  0  0  0  0  0  0  0  0  0
    6.8913   -0.0616    0.0000 N   0  0  0  0  0  0  0  0  0  0  0  0
  1  2  1  0  0  0  0
  2  3  1  0  0  0  0
  3  4  4  0  0  0  0
  4  5  4  0  0  0  0
  5  6  4  0  0  0  0
  6  7  4  0  0  0  0
  7  8  4  0  0  0  0
  3  8  4  0  0  0  0
  8  9  1  0  0  0  0
  9 10  1  0  0  0  0
 10 11  4  0  0  0  0
 11 12  4  0  0  0  0
 12 13  4  0  0  0  0
 13 14  4  0  0  0  0
 14 15  4  0  0  0  0
 15 16  1  0  0  0  0
 15 17  4  0  0  0  0
 17 18  4  0  0  0  0
 18 19  1  0  0  0  0
 19 20  1  0  0  0  0
 20 21  1  0  0  0  0
 21 22  1  0  0  0  0
 21 23  1  0  0  0  0
 21 24  1  0  0  0  0
 18 25  4  0  0  0  0
 13 25  4  0  0  0  0
 25 26  4  0  0  0  0
 10 26  4  0  0  0  0
  5 27  1  0  0  0  0
 27 28  4  0  0  0  0
 28 29  4  0  0  0  0
 29 30  4  0  0  0  0
 30 31  1  0  0  0  0
 31 32  1  0  0  0  0
 32 33  1  0  0  0  0
 33 34  1  0  0  0  0
 27 34  4  0  0  0  0
 30 34  4  0  0  0  0
M  END
> <BindingDB_ID/CHEMBL_ID>
50464040

> <pKi>
6.9

> <Target Name>
Cyclin-A2/Cyclin-dependent kinase 2

> <Target Source Organism>
Homo sapiens

> <Target Uniprot>
P24941

> <Article DOI>
10.1021/acs.jmedchem.8b00690

$$$$

  Mrv2316 09262419122D          

 32 36  0  0  0  0            999 V2000
    3.3675   -2.6339    0.0000 C   0  0  0  0  0  0  0  0  0  0  0  0
    3.3675   -3.4589    0.0000 C   0  0  0  0  0  0  0  0  0  0  0  0
    4.0350   -3.9439    0.0000 N   0  0  0  0  0  0  0  0  0  0  0  0
    3.7800   -4.7285    0.0000 C   0  0  0  0  0  0  0  0  0  0  0  0
    4.2650   -5.3959    0.0000 N   0  0  0  0  0  0  0  0  0  0  0  0
    5.0854   -5.3097    0.0000 C   0  0  0  0  0  0  0  0  0  0  0  0
    5.4979   -4.5952    0.0000 C   0  0  0  0  0  0  0  0  0  0  0  0
    6.3049   -4.7667    0.0000 C   0  0  0  0  0  0  0  0  0  0  0  0
    6.3911   -5.5872    0.0000 C   0  0  0  0  0  0  0  0  0  0  0  0
    5.6375   -5.9228    0.0000 C   0  0  0  0  0  0  0  0  0  0  0  0
    2.9550   -4.7285    0.0000 S   0  0  0  0  0  0  0  0  0  0  0  0
    2.7001   -3.9439    0.0000 C   0  0  0  0  0  0  0  0  0  0  0  0
    1.9155   -3.6889    0.0000 C   0  0  0  0  0  0  0  0  0  0  0  0
    1.3024   -4.2410    0.0000 C   0  0  0  0  0  0  0  0  0  0  0  0
    0.5178   -3.9860    0.0000 C   0  0  0  0  0  0  0  0  0  0  0  0
    0.3462   -3.1790    0.0000 N   0  0  0  0  0  0  0  0  0  0  0  0
    0.9593   -2.6270    0.0000 C   0  0  0  0  0  0  0  0  0  0  0  0
    0.7878   -1.8200    0.0000 N   0  0  0  0  0  0  0  0  0  0  0  0
    1.4009   -1.2680    0.0000 C   0  0  0  0  0  0  0  0  0  0  0  0
    1.2294   -0.4610    0.0000 C   0  0  0  0  0  0  0  0  0  0  0  0
    1.8425    0.0910    0.0000 C   0  0  0  0  0  0  0  0  0  0  0  0
    2.6271   -0.1639    0.0000 C   0  0  0  0  0  0  0  0  0  0  0  0
    2.7986   -0.9709    0.0000 C   0  0  0  0  0  0  0  0  0  0  0  0
    2.1855   -1.5229    0.0000 N   0  0  0  0  0  0  0  0  0  0  0  0
    3.2402    0.3881    0.0000 N   0  0  0  0  0  0  0  0  0  0  0  0
    3.0088    1.1800    0.0000 C   0  0  0  0  0  0  0  0  0  0  0  0
    3.4837    1.8546    0.0000 C   0  0  0  0  0  0  0  0  0  0  0  0
    4.3072    1.9039    0.0000 C   0  0  0  0  0  0  0  0  0  0  0  0
    4.8593    1.2909    0.0000 N   0  0  0  0  0  0  0  0  0  0  0  0
    4.7241    0.4770    0.0000 C   0  0  0  0  0  0  0  0  0  0  0  0
    4.0035    0.0752    0.0000 C   0  0  0  0  0  0  0  0  0  0  0  0
    1.7439   -2.8819    0.0000 N   0  0  0  0  0  0  0  0  0  0  0  0
  1  2  1  0  0  0  0
  2  3  4  0  0  0  0
  3  4  4  0  0  0  0
  4  5  1  0  0  0  0
  5  6  1  0  0  0  0
  6  7  1  0  0  0  0
  7  8  1  0  0  0  0
  8  9  1  0  0  0  0
  9 10  1  0  0  0  0
  6 10  1  0  0  0  0
  4 11  4  0  0  0  0
 11 12  4  0  0  0  0
  2 12  4  0  0  0  0
 12 13  1  0  0  0  0
 13 14  4  0  0  0  0
 14 15  4  0  0  0  0
 15 16  4  0  0  0  0
 16 17  4  0  0  0  0
 17 18  1  0  0  0  0
 18 19  1  0  0  0  0
 19 20  4  0  0  0  0
 20 21  4  0  0  0  0
 21 22  4  0  0  0  0
 22 23  4  0  0  0  0
 23 24  4  0  0  0  0
 19 24  4  0  0  0  0
 22 25  1  0  0  0  0
 25 26  1  0  0  0  0
 26 27  1  0  0  0  0
 27 28  1  0  0  0  0
 28 29  1  0  0  0  0
 29 30  1  0  0  0  0
 30 31  1  0  0  0  0
 25 31  1  0  0  0  0
 17 32  4  0  0  0  0
 13 32  4  0  0  0  0
M  END
> <BindingDB_ID/CHEMBL_ID>
50501578

> <pKi>
6.6

> <Target Name>
Cyclin-A2/Cyclin-dependent kinase 2

> <Target Source Organism>
Homo sapiens

> <Target Uniprot>
P24941

> <Article DOI>
10.1021/acs.jmedchem.6b01670

$$$$

  Mrv2316 09262419122D          

 32 36  0  0  0  0            999 V2000
    2.1434   -5.3625    0.0000 C   0  0  0  0  0  0  0  0  0  0  0  0
    2.1434   -6.1875    0.0000 C   0  0  0  0  0  0  0  0  0  0  0  0
    2.8109   -6.6724    0.0000 N   0  0  0  0  0  0  0  0  0  0  0  0
    2.5559   -7.4570    0.0000 C   0  0  0  0  0  0  0  0  0  0  0  0
    3.0408   -8.1245    0.0000 N   0  0  0  0  0  0  0  0  0  0  0  0
    3.8613   -8.0382    0.0000 C   0  0  0  0  0  0  0  0  0  0  0  0
    4.2738   -7.3238    0.0000 C   0  0  0  0  0  0  0  0  0  0  0  0
    5.0808   -7.4953    0.0000 C   0  0  0  0  0  0  0  0  0  0  0  0
    5.1670   -8.3158    0.0000 C   0  0  0  0  0  0  0  0  0  0  0  0
    4.4133   -8.6513    0.0000 C   0  0  0  0  0  0  0  0  0  0  0  0
    1.7309   -7.4570    0.0000 S   0  0  0  0  0  0  0  0  0  0  0  0
    1.4760   -6.6724    0.0000 C   0  0  0  0  0  0  0  0  0  0  0  0
    0.6914   -6.4175    0.0000 C   0  0  0  0  0  0  0  0  0  0  0  0
    0.0783   -6.9695    0.0000 N   0  0  0  0  0  0  0  0  0  0  0  0
   -0.7064   -6.7146    0.0000 C   0  0  0  0  0  0  0  0  0  0  0  0
   -1.3195   -7.2666    0.0000 N   0  0  0  0  0  0  0  0  0  0  0  0
   -2.1041   -7.0117    0.0000 C   0  0  0  0  0  0  0  0  0  0  0  0
   -2.7172   -7.5637    0.0000 C   0  0  0  0  0  0  0  0  0  0  0  0
   -3.5018   -7.3088    0.0000 C   0  0  0  0  0  0  0  0  0  0  0  0
   -3.6733   -6.5018    0.0000 C   0  0  0  0  0  0  0  0  0  0  0  0
   -3.0602   -5.9498    0.0000 C   0  0  0  0  0  0  0  0  0  0  0  0
   -2.2756   -6.2047    0.0000 N   0  0  0  0  0  0  0  0  0  0  0  0
   -4.4579   -6.2469    0.0000 N   0  0  0  0  0  0  0  0  0  0  0  0
   -5.0710   -6.7989    0.0000 C   0  0  0  0  0  0  0  0  0  0  0  0
   -5.8557   -6.5439    0.0000 C   0  0  0  0  0  0  0  0  0  0  0  0
   -6.0272   -5.7370    0.0000 N   0  0  0  0  0  0  0  0  0  0  0  0
   -5.4141   -5.1849    0.0000 C   0  0  0  0  0  0  0  0  0  0  0  0
   -4.6295   -5.4399    0.0000 C   0  0  0  0  0  0  0  0  0  0  0  0
   -0.8779   -5.9076    0.0000 N   0  0  0  0  0  0  0  0  0  0  0  0
   -0.2648   -5.3556    0.0000 C   0  0  0  0  0  0  0  0  0  0  0  0
    0.5198   -5.6105    0.0000 C   0  0  0  0  0  0  0  0  0  0  0  0
    1.1329   -5.0585    0.0000 F   0  0  0  0  0  0  0  0  0  0  0  0
  1  2  1  0  0  0  0
  2  3  4  0  0  0  0
  3  4  4  0  0  0  0
  4  5  1  0  0  0  0
  5  6  1  0  0  0  0
  6  7  1  0  0  0  0
  7  8  1  0  0  0  0
  8  9  1  0  0  0  0
  9 10  1  0  0  0  0
  6 10  1  0  0  0  0
  4 11  4  0  0  0  0
 11 12  4  0  0  0  0
  2 12  4  0  0  0  0
 12 13  1  0  0  0  0
 13 14  4  0  0  0  0
 14 15  4  0  0  0  0
 15 16  1  0  0  0  0
 16 17  1  0  0  0  0
 17 18  4  0  0  0  0
 18 19  4  0  0  0  0
 19 20  4  0  0  0  0
 20 21  4  0  0  0  0
 21 22  4  0  0  0  0
 17 22  4  0  0  0  0
 20 23  1  0  0  0  0
 23 24  1  0  0  0  0
 24 25  1  0  0  0  0
 25 26  1  0  0  0  0
 26 27  1  0  0  0  0
 27 28  1  0  0  0  0
 23 28  1  0  0  0  0
 15 29  4  0  0  0  0
 29 30  4  0  0  0  0
 30 31  4  0  0  0  0
 13 31  4  0  0  0  0
 31 32  1  0  0  0  0
M  END
> <BindingDB_ID/CHEMBL_ID>
50501579

> <pKi>
6.6

> <Target Name>
Cyclin-A2/Cyclin-dependent kinase 2

> <Target Source Organism>
Homo sapiens

> <Target Uniprot>
P24941

> <Article DOI>
10.1021/acs.jmedchem.6b01670

$$$$

  Mrv2316 09262419122D          

 33 37  0  0  0  0            999 V2000
    0.5969   -5.6200    0.0000 C   0  0  0  0  0  0  0  0  0  0  0  0
    0.5969   -6.4450    0.0000 C   0  0  0  0  0  0  0  0  0  0  0  0
    1.2643   -6.9299    0.0000 N   0  0  0  0  0  0  0  0  0  0  0  0
    1.0094   -7.7145    0.0000 C   0  0  0  0  0  0  0  0  0  0  0  0
    1.4943   -8.3819    0.0000 N   0  0  0  0  0  0  0  0  0  0  0  0
    2.3148   -8.2957    0.0000 C   0  0  0  0  0  0  0  0  0  0  0  0
    2.7273   -7.5812    0.0000 C   0  0  0  0  0  0  0  0  0  0  0  0
    3.5343   -7.7528    0.0000 C   0  0  0  0  0  0  0  0  0  0  0  0
    3.6205   -8.5732    0.0000 C   0  0  0  0  0  0  0  0  0  0  0  0
    2.8668   -8.9088    0.0000 C   0  0  0  0  0  0  0  0  0  0  0  0
    0.1844   -7.7145    0.0000 S   0  0  0  0  0  0  0  0  0  0  0  0
   -0.0705   -6.9299    0.0000 C   0  0  0  0  0  0  0  0  0  0  0  0
   -0.8552   -6.6749    0.0000 C   0  0  0  0  0  0  0  0  0  0  0  0
   -1.4682   -7.2270    0.0000 N   0  0  0  0  0  0  0  0  0  0  0  0
   -2.2529   -6.9720    0.0000 C   0  0  0  0  0  0  0  0  0  0  0  0
   -2.8660   -7.5241    0.0000 N   0  0  0  0  0  0  0  0  0  0  0  0
   -3.6506   -7.2691    0.0000 C   0  0  0  0  0  0  0  0  0  0  0  0
   -4.2637   -7.8212    0.0000 C   0  0  0  0  0  0  0  0  0  0  0  0
   -5.0483   -7.5662    0.0000 C   0  0  0  0  0  0  0  0  0  0  0  0
   -5.2198   -6.7593    0.0000 C   0  0  0  0  0  0  0  0  0  0  0  0
   -4.6067   -6.2072    0.0000 C   0  0  0  0  0  0  0  0  0  0  0  0
   -3.8221   -6.4622    0.0000 N   0  0  0  0  0  0  0  0  0  0  0  0
   -6.0045   -6.5043    0.0000 N   0  0  0  0  0  0  0  0  0  0  0  0
   -6.5746   -7.1006    0.0000 C   0  0  0  0  0  0  0  0  0  0  0  0
   -7.3963   -7.0267    0.0000 C   0  0  0  0  0  0  0  0  0  0  0  0
   -7.8507   -6.3381    0.0000 C   0  0  0  0  0  0  0  0  0  0  0  0
   -7.5958   -5.5535    0.0000 N   0  0  0  0  0  0  0  0  0  0  0  0
   -6.8234   -5.2636    0.0000 C   0  0  0  0  0  0  0  0  0  0  0  0
   -6.1152   -5.6868    0.0000 C   0  0  0  0  0  0  0  0  0  0  0  0
   -2.4244   -6.1651    0.0000 N   0  0  0  0  0  0  0  0  0  0  0  0
   -1.8113   -5.6130    0.0000 C   0  0  0  0  0  0  0  0  0  0  0  0
   -1.0267   -5.8680    0.0000 C   0  0  0  0  0  0  0  0  0  0  0  0
   -0.4136   -5.3159    0.0000 F   0  0  0  0  0  0  0  0  0  0  0  0
  1  2  1  0  0  0  0
  2  3  4  0  0  0  0
  3  4  4  0  0  0  0
  4  5  1  0  0  0  0
  5  6  1  0  0  0  0
  6  7  1  0  0  0  0
  7  8  1  0  0  0  0
  8  9  1  0  0  0  0
  9 10  1  0  0  0  0
  6 10  1  0  0  0  0
  4 11  4  0  0  0  0
 11 12  4  0  0  0  0
  2 12  4  0  0  0  0
 12 13  1  0  0  0  0
 13 14  4  0  0  0  0
 14 15  4  0  0  0  0
 15 16  1  0  0  0  0
 16 17  1  0  0  0  0
 17 18  4  0  0  0  0
 18 19  4  0  0  0  0
 19 20  4  0  0  0  0
 20 21  4  0  0  0  0
 21 22  4  0  0  0  0
 17 22  4  0  0  0  0
 20 23  1  0  0  0  0
 23 24  1  0  0  0  0
 24 25  1  0  0  0  0
 25 26  1  0  0  0  0
 26 27  1  0  0  0  0
 27 28  1  0  0  0  0
 28 29  1  0  0  0  0
 23 29  1  0  0  0  0
 15 30  4  0  0  0  0
 30 31  4  0  0  0  0
 31 32  4  0  0  0  0
 13 32  4  0  0  0  0
 32 33  1  0  0  0  0
M  END
> <BindingDB_ID/CHEMBL_ID>
50501580

> <pKi>
6.4

> <Target Name>
Cyclin-A2/Cyclin-dependent kinase 2

> <Target Source Organism>
Homo sapiens

> <Target Uniprot>
P24941

> <Article DOI>
10.1021/acs.jmedchem.6b01670

$$$$

  Mrv2316 09262419122D          

 33 37  0  0  0  0            999 V2000
    1.3222   10.5402    0.0000 C   0  0  0  0  0  0  0  0  0  0  0  0
    1.3222    9.7152    0.0000 N   0  0  0  0  0  0  0  0  0  0  0  0
    2.0367    9.3027    0.0000 C   0  0  0  0  0  0  0  0  0  0  0  0
    2.0367    8.4777    0.0000 C   0  0  0  0  0  0  0  0  0  0  0  0
    1.3222    8.0652    0.0000 N   0  0  0  0  0  0  0  0  0  0  0  0
    0.6078    8.4777    0.0000 C   0  0  0  0  0  0  0  0  0  0  0  0
    0.6078    9.3027    0.0000 C   0  0  0  0  0  0  0  0  0  0  0  0
    1.3222    7.2402    0.0000 C   0  0  0  0  0  0  0  0  0  0  0  0
    2.0367    6.8277    0.0000 C   0  0  0  0  0  0  0  0  0  0  0  0
    2.0367    6.0027    0.0000 C   0  0  0  0  0  0  0  0  0  0  0  0
    1.3222    5.5902    0.0000 C   0  0  0  0  0  0  0  0  0  0  0  0
    1.3222    4.7652    0.0000 N   0  0  0  0  0  0  0  0  0  0  0  0
    2.0367    4.3527    0.0000 C   0  0  0  0  0  0  0  0  0  0  0  0
    2.7512    4.7652    0.0000 N   0  0  0  0  0  0  0  0  0  0  0  0
    3.4656    4.3527    0.0000 C   0  0  0  0  0  0  0  0  0  0  0  0
    3.4656    3.5277    0.0000 C   0  0  0  0  0  0  0  0  0  0  0  0
    4.1801    3.1152    0.0000 F   0  0  0  0  0  0  0  0  0  0  0  0
    2.7512    3.1152    0.0000 C   0  0  0  0  0  0  0  0  0  0  0  0
    2.0367    3.5277    0.0000 N   0  0  0  0  0  0  0  0  0  0  0  0
    2.7512    2.2902    0.0000 C   0  0  0  0  0  0  0  0  0  0  0  0
    3.4186    1.8053    0.0000 S   0  0  0  0  0  0  0  0  0  0  0  0
    3.1637    1.0206    0.0000 C   0  0  0  0  0  0  0  0  0  0  0  0
    3.6486    0.3532    0.0000 N   0  0  0  0  0  0  0  0  0  0  0  0
    3.3130   -0.4005    0.0000 C   0  0  0  0  0  0  0  0  0  0  0  0
    3.7255   -1.1149    0.0000 C   0  0  0  0  0  0  0  0  0  0  0  0
    3.1735   -1.7280    0.0000 C   0  0  0  0  0  0  0  0  0  0  0  0
    2.4198   -1.3925    0.0000 C   0  0  0  0  0  0  0  0  0  0  0  0
    2.5061   -0.5720    0.0000 C   0  0  0  0  0  0  0  0  0  0  0  0
    2.3387    1.0206    0.0000 N   0  0  0  0  0  0  0  0  0  0  0  0
    2.0837    1.8053    0.0000 C   0  0  0  0  0  0  0  0  0  0  0  0
    1.2991    2.0602    0.0000 C   0  0  0  0  0  0  0  0  0  0  0  0
    0.6078    6.0027    0.0000 N   0  0  0  0  0  0  0  0  0  0  0  0
    0.6078    6.8277    0.0000 C   0  0  0  0  0  0  0  0  0  0  0  0
  1  2  1  0  0  0  0
  2  3  1  0  0  0  0
  3  4  1  0  0  0  0
  4  5  1  0  0  0  0
  5  6  1  0  0  0  0
  6  7  1  0  0  0  0
  2  7  1  0  0  0  0
  5  8  1  0  0  0  0
  8  9  4  0  0  0  0
  9 10  4  0  0  0  0
 10 11  4  0  0  0  0
 11 12  1  0  0  0  0
 12 13  1  0  0  0  0
 13 14  4  0  0  0  0
 14 15  4  0  0  0  0
 15 16  4  0  0  0  0
 16 17  1  0  0  0  0
 16 18  4  0  0  0  0
 18 19  4  0  0  0  0
 13 19  4  0  0  0  0
 18 20  1  0  0  0  0
 20 21  4  0  0  0  0
 21 22  4  0  0  0  0
 22 23  1  0  0  0  0
 23 24  1  0  0  0  0
 24 25  1  0  0  0  0
 25 26  1  0  0  0  0
 26 27  1  0  0  0  0
 27 28  1  0  0  0  0
 24 28  1  0  0  0  0
 22 29  4  0  0  0  0
 29 30  4  0  0  0  0
 20 30  4  0  0  0  0
 30 31  1  0  0  0  0
 11 32  4  0  0  0  0
 32 33  4  0  0  0  0
  8 33  4  0  0  0  0
M  END
> <BindingDB_ID/CHEMBL_ID>
50501581

> <pKi>
7.0

> <Target Name>
Cyclin-A2/Cyclin-dependent kinase 2

> <Target Source Organism>
Homo sapiens

> <Target Uniprot>
P24941

> <Article DOI>
10.1021/acs.jmedchem.6b01670

$$$$

  Mrv2316 09262419122D          

 34 38  0  0  0  0            999 V2000
    0.6078   10.9527    0.0000 C   0  0  0  0  0  0  0  0  0  0  0  0
    1.3222   10.5402    0.0000 C   0  0  0  0  0  0  0  0  0  0  0  0
    1.3222    9.7152    0.0000 N   0  0  0  0  0  0  0  0  0  0  0  0
    2.0367    9.3027    0.0000 C   0  0  0  0  0  0  0  0  0  0  0  0
    2.0367    8.4777    0.0000 C   0  0  0  0  0  0  0  0  0  0  0  0
    1.3222    8.0652    0.0000 N   0  0  0  0  0  0  0  0  0  0  0  0
    0.6078    8.4777    0.0000 C   0  0  0  0  0  0  0  0  0  0  0  0
    0.6078    9.3027    0.0000 C   0  0  0  0  0  0  0  0  0  0  0  0
    1.3222    7.2402    0.0000 C   0  0  0  0  0  0  0  0  0  0  0  0
    2.0367    6.8277    0.0000 C   0  0  0  0  0  0  0  0  0  0  0  0
    2.0367    6.0027    0.0000 C   0  0  0  0  0  0  0  0  0  0  0  0
    1.3222    5.5902    0.0000 C   0  0  0  0  0  0  0  0  0  0  0  0
    1.3222    4.7652    0.0000 N   0  0  0  0  0  0  0  0  0  0  0  0
    2.0367    4.3527    0.0000 C   0  0  0  0  0  0  0  0  0  0  0  0
    2.7512    4.7652    0.0000 N   0  0  0  0  0  0  0  0  0  0  0  0
    3.4656    4.3527    0.0000 C   0  0  0  0  0  0  0  0  0  0  0  0
    3.4656    3.5277    0.0000 C   0  0  0  0  0  0  0  0  0  0  0  0
    4.1801    3.1152    0.0000 F   0  0  0  0  0  0  0  0  0  0  0  0
    2.7512    3.1152    0.0000 C   0  0  0  0  0  0  0  0  0  0  0  0
    2.0367    3.5277    0.0000 N   0  0  0  0  0  0  0  0  0  0  0  0
    2.7512    2.2902    0.0000 C   0  0  0  0  0  0  0  0  0  0  0  0
    3.4186    1.8053    0.0000 S   0  0  0  0  0  0  0  0  0  0  0  0
    3.1637    1.0206    0.0000 C   0  0  0  0  0  0  0  0  0  0  0  0
    3.6486    0.3532    0.0000 N   0  0  0  0  0  0  0  0  0  0  0  0
    3.3130   -0.4005    0.0000 C   0  0  0  0  0  0  0  0  0  0  0  0
    3.7255   -1.1149    0.0000 C   0  0  0  0  0  0  0  0  0  0  0  0
    3.1735   -1.7280    0.0000 C   0  0  0  0  0  0  0  0  0  0  0  0
    2.4198   -1.3925    0.0000 C   0  0  0  0  0  0  0  0  0  0  0  0
    2.5061   -0.5720    0.0000 C   0  0  0  0  0  0  0  0  0  0  0  0
    2.3387    1.0206    0.0000 N   0  0  0  0  0  0  0  0  0  0  0  0
    2.0837    1.8053    0.0000 C   0  0  0  0  0  0  0  0  0  0  0  0
    1.2991    2.0602    0.0000 C   0  0  0  0  0  0  0  0  0  0  0  0
    0.6078    6.0027    0.0000 N   0  0  0  0  0  0  0  0  0  0  0  0
    0.6078    6.8277    0.0000 C   0  0  0  0  0  0  0  0  0  0  0  0
  1  2  1  0  0  0  0
  2  3  1  0  0  0  0
  3  4  1  0  0  0  0
  4  5  1  0  0  0  0
  5  6  1  0  0  0  0
  6  7  1  0  0  0  0
  7  8  1  0  0  0  0
  3  8  1  0  0  0  0
  6  9  1  0  0  0  0
  9 10  4  0  0  0  0
 10 11  4  0  0  0  0
 11 12  4  0  0  0  0
 12 13  1  0  0  0  0
 13 14  1  0  0  0  0
 14 15  4  0  0  0  0
 15 16  4  0  0  0  0
 16 17  4  0  0  0  0
 17 18  1  0  0  0  0
 17 19  4  0  0  0  0
 19 20  4  0  0  0  0
 14 20  4  0  0  0  0
 19 21  1  0  0  0  0
 21 22  4  0  0  0  0
 22 23  4  0  0  0  0
 23 24  1  0  0  0  0
 24 25  1  0  0  0  0
 25 26  1  0  0  0  0
 26 27  1  0  0  0  0
 27 28  1  0  0  0  0
 28 29  1  0  0  0  0
 25 29  1  0  0  0  0
 23 30  4  0  0  0  0
 30 31  4  0  0  0  0
 21 31  4  0  0  0  0
 31 32  1  0  0  0  0
 12 33  4  0  0  0  0
 33 34  4  0  0  0  0
  9 34  4  0  0  0  0
M  END
> <BindingDB_ID/CHEMBL_ID>
50501582

> <pKi>
6.5

> <Target Name>
Cyclin-A2/Cyclin-dependent kinase 2

> <Target Source Organism>
Homo sapiens

> <Target Uniprot>
P24941

> <Article DOI>
10.1021/acs.jmedchem.6b01670

$$$$

  Mrv2316 09262419122D          

 35 39  0  0  0  0            999 V2000
    0.6078   10.9527    0.0000 C   0  0  0  0  0  0  0  0  0  0  0  0
    1.3222   10.5402    0.0000 C   0  0  0  0  0  0  0  0  0  0  0  0
    2.0367   10.9527    0.0000 O   0  0  0  0  0  0  0  0  0  0  0  0
    1.3222    9.7152    0.0000 N   0  0  0  0  0  0  0  0  0  0  0  0
    2.0367    9.3027    0.0000 C   0  0  0  0  0  0  0  0  0  0  0  0
    2.0367    8.4777    0.0000 C   0  0  0  0  0  0  0  0  0  0  0  0
    1.3222    8.0652    0.0000 N   0  0  0  0  0  0  0  0  0  0  0  0
    0.6078    8.4777    0.0000 C   0  0  0  0  0  0  0  0  0  0  0  0
    0.6078    9.3027    0.0000 C   0  0  0  0  0  0  0  0  0  0  0  0
    1.3222    7.2402    0.0000 C   0  0  0  0  0  0  0  0  0  0  0  0
    2.0367    6.8277    0.0000 C   0  0  0  0  0  0  0  0  0  0  0  0
    2.0367    6.0027    0.0000 C   0  0  0  0  0  0  0  0  0  0  0  0
    1.3222    5.5902    0.0000 C   0  0  0  0  0  0  0  0  0  0  0  0
    1.3222    4.7652    0.0000 N   0  0  0  0  0  0  0  0  0  0  0  0
    2.0367    4.3527    0.0000 C   0  0  0  0  0  0  0  0  0  0  0  0
    2.7512    4.7652    0.0000 N   0  0  0  0  0  0  0  0  0  0  0  0
    3.4656    4.3527    0.0000 C   0  0  0  0  0  0  0  0  0  0  0  0
    3.4656    3.5277    0.0000 C   0  0  0  0  0  0  0  0  0  0  0  0
    4.1801    3.1152    0.0000 F   0  0  0  0  0  0  0  0  0  0  0  0
    2.7512    3.1152    0.0000 C   0  0  0  0  0  0  0  0  0  0  0  0
    2.0367    3.5277    0.0000 N   0  0  0  0  0  0  0  0  0  0  0  0
    2.7512    2.2902    0.0000 C   0  0  0  0  0  0  0  0  0  0  0  0
    3.4186    1.8053    0.0000 S   0  0  0  0  0  0  0  0  0  0  0  0
    3.1637    1.0206    0.0000 C   0  0  0  0  0  0  0  0  0  0  0  0
    3.6486    0.3532    0.0000 N   0  0  0  0  0  0  0  0  0  0  0  0
    3.3130   -0.4005    0.0000 C   0  0  0  0  0  0  0  0  0  0  0  0
    3.7255   -1.1149    0.0000 C   0  0  0  0  0  0  0  0  0  0  0  0
    3.1735   -1.7280    0.0000 C   0  0  0  0  0  0  0  0  0  0  0  0
    2.4198   -1.3925    0.0000 C   0  0  0  0  0  0  0  0  0  0  0  0
    2.5061   -0.5720    0.0000 C   0  0  0  0  0  0  0  0  0  0  0  0
    2.3387    1.0206    0.0000 N   0  0  0  0  0  0  0  0  0  0  0  0
    2.0837    1.8053    0.0000 C   0  0  0  0  0  0  0  0  0  0  0  0
    1.2991    2.0602    0.0000 C   0  0  0  0  0  0  0  0  0  0  0  0
    0.6078    6.0027    0.0000 N   0  0  0  0  0  0  0  0  0  0  0  0
    0.6078    6.8277    0.0000 C   0  0  0  0  0  0  0  0  0  0  0  0
  1  2  1  0  0  0  0
  2  3  2  0  0  0  0
  2  4  1  0  0  0  0
  4  5  1  0  0  0  0
  5  6  1  0  0  0  0
  6  7  1  0  0  0  0
  7  8  1  0  0  0  0
  8  9  1  0  0  0  0
  4  9  1  0  0  0  0
  7 10  1  0  0  0  0
 10 11  4  0  0  0  0
 11 12  4  0  0  0  0
 12 13  4  0  0  0  0
 13 14  1  0  0  0  0
 14 15  1  0  0  0  0
 15 16  4  0  0  0  0
 16 17  4  0  0  0  0
 17 18  4  0  0  0  0
 18 19  1  0  0  0  0
 18 20  4  0  0  0  0
 20 21  4  0  0  0  0
 15 21  4  0  0  0  0
 20 22  1  0  0  0  0
 22 23  4  0  0  0  0
 23 24  4  0  0  0  0
 24 25  1  0  0  0  0
 25 26  1  0  0  0  0
 26 27  1  0  0  0  0
 27 28  1  0  0  0  0
 28 29  1  0  0  0  0
 29 30  1  0  0  0  0
 26 30  1  0  0  0  0
 24 31  4  0  0  0  0
 31 32  4  0  0  0  0
 22 32  4  0  0  0  0
 32 33  1  0  0  0  0
 13 34  4  0  0  0  0
 34 35  4  0  0  0  0
 10 35  4  0  0  0  0
M  END
> <BindingDB_ID/CHEMBL_ID>
50501583

> <pKi>
6.6

> <Target Name>
Cyclin-A2/Cyclin-dependent kinase 2

> <Target Source Organism>
Homo sapiens

> <Target Uniprot>
P24941

> <Article DOI>
10.1021/acs.jmedchem.6b01670

$$$$

  Mrv2316 09262419122D          

 32 36  0  0  0  0            999 V2000
    2.1434   -5.3625    0.0000 C   0  0  0  0  0  0  0  0  0  0  0  0
    2.1434   -6.1875    0.0000 C   0  0  0  0  0  0  0  0  0  0  0  0
    2.8109   -6.6724    0.0000 N   0  0  0  0  0  0  0  0  0  0  0  0
    2.5559   -7.4570    0.0000 C   0  0  0  0  0  0  0  0  0  0  0  0
    3.0408   -8.1245    0.0000 N   0  0  0  0  0  0  0  0  0  0  0  0
    3.8613   -8.0382    0.0000 C   0  0  0  0  0  0  0  0  0  0  0  0
    4.2738   -7.3238    0.0000 C   0  0  0  0  0  0  0  0  0  0  0  0
    5.0808   -7.4953    0.0000 C   0  0  0  0  0  0  0  0  0  0  0  0
    5.1670   -8.3158    0.0000 C   0  0  0  0  0  0  0  0  0  0  0  0
    4.4133   -8.6513    0.0000 C   0  0  0  0  0  0  0  0  0  0  0  0
    1.7309   -7.4570    0.0000 S   0  0  0  0  0  0  0  0  0  0  0  0
    1.4760   -6.6724    0.0000 C   0  0  0  0  0  0  0  0  0  0  0  0
    0.6914   -6.4175    0.0000 C   0  0  0  0  0  0  0  0  0  0  0  0
    0.0783   -6.9695    0.0000 N   0  0  0  0  0  0  0  0  0  0  0  0
   -0.7064   -6.7146    0.0000 C   0  0  0  0  0  0  0  0  0  0  0  0
   -1.3195   -7.2666    0.0000 N   0  0  0  0  0  0  0  0  0  0  0  0
   -2.1041   -7.0117    0.0000 C   0  0  0  0  0  0  0  0  0  0  0  0
   -2.7172   -7.5637    0.0000 C   0  0  0  0  0  0  0  0  0  0  0  0
   -3.5018   -7.3088    0.0000 C   0  0  0  0  0  0  0  0  0  0  0  0
   -3.6733   -6.5018    0.0000 C   0  0  0  0  0  0  0  0  0  0  0  0
   -3.0602   -5.9498    0.0000 C   0  0  0  0  0  0  0  0  0  0  0  0
   -2.2756   -6.2047    0.0000 N   0  0  0  0  0  0  0  0  0  0  0  0
   -4.4579   -6.2469    0.0000 N   0  0  0  0  0  0  0  0  0  0  0  0
   -5.0710   -6.7989    0.0000 C   0  0  0  0  0  0  0  0  0  0  0  0
   -5.8557   -6.5439    0.0000 C   0  0  0  0  0  0  0  0  0  0  0  0
   -6.0272   -5.7370    0.0000 O   0  0  0  0  0  0  0  0  0  0  0  0
   -5.4141   -5.1849    0.0000 C   0  0  0  0  0  0  0  0  0  0  0  0
   -4.6295   -5.4399    0.0000 C   0  0  0  0  0  0  0  0  0  0  0  0
   -0.8779   -5.9076    0.0000 N   0  0  0  0  0  0  0  0  0  0  0  0
   -0.2648   -5.3556    0.0000 C   0  0  0  0  0  0  0  0  0  0  0  0
    0.5198   -5.6105    0.0000 C   0  0  0  0  0  0  0  0  0  0  0  0
    1.1329   -5.0585    0.0000 F   0  0  0  0  0  0  0  0  0  0  0  0
  1  2  1  0  0  0  0
  2  3  4  0  0  0  0
  3  4  4  0  0  0  0
  4  5  1  0  0  0  0
  5  6  1  0  0  0  0
  6  7  1  0  0  0  0
  7  8  1  0  0  0  0
  8  9  1  0  0  0  0
  9 10  1  0  0  0  0
  6 10  1  0  0  0  0
  4 11  4  0  0  0  0
 11 12  4  0  0  0  0
  2 12  4  0  0  0  0
 12 13  1  0  0  0  0
 13 14  4  0  0  0  0
 14 15  4  0  0  0  0
 15 16  1  0  0  0  0
 16 17  1  0  0  0  0
 17 18  4  0  0  0  0
 18 19  4  0  0  0  0
 19 20  4  0  0  0  0
 20 21  4  0  0  0  0
 21 22  4  0  0  0  0
 17 22  4  0  0  0  0
 20 23  1  0  0  0  0
 23 24  1  0  0  0  0
 24 25  1  0  0  0  0
 25 26  1  0  0  0  0
 26 27  1  0  0  0  0
 27 28  1  0  0  0  0
 23 28  1  0  0  0  0
 15 29  4  0  0  0  0
 29 30  4  0  0  0  0
 30 31  4  0  0  0  0
 13 31  4  0  0  0  0
 31 32  1  0  0  0  0
M  END
> <BindingDB_ID/CHEMBL_ID>
50501584

> <pKi>
7.0

> <Target Name>
Cyclin-A2/Cyclin-dependent kinase 2

> <Target Source Organism>
Homo sapiens

> <Target Uniprot>
P24941

> <Article DOI>
10.1021/acs.jmedchem.6b01670

$$$$

  Mrv2316 09262419122D          

 34 38  0  0  0  0            999 V2000
    4.1801   -1.0098    0.0000 F   0  0  0  0  0  0  0  0  0  0  0  0
    4.1801   -1.8348    0.0000 C   0  0  0  0  0  0  0  0  0  0  0  0
    3.3551   -1.8348    0.0000 F   0  0  0  0  0  0  0  0  0  0  0  0
    5.0051   -1.8348    0.0000 F   0  0  0  0  0  0  0  0  0  0  0  0
    4.1801   -2.6598    0.0000 C   0  0  0  0  0  0  0  0  0  0  0  0
    4.8476   -3.1447    0.0000 N   0  0  0  0  0  0  0  0  0  0  0  0
    4.5926   -3.9294    0.0000 C   0  0  0  0  0  0  0  0  0  0  0  0
    5.0775   -4.5968    0.0000 N   0  0  0  0  0  0  0  0  0  0  0  0
    5.8980   -4.5106    0.0000 C   0  0  0  0  0  0  0  0  0  0  0  0
    6.3105   -3.7961    0.0000 C   0  0  0  0  0  0  0  0  0  0  0  0
    7.1175   -3.9676    0.0000 C   0  0  0  0  0  0  0  0  0  0  0  0
    7.2037   -4.7881    0.0000 C   0  0  0  0  0  0  0  0  0  0  0  0
    6.4501   -5.1237    0.0000 C   0  0  0  0  0  0  0  0  0  0  0  0
    3.7676   -3.9294    0.0000 S   0  0  0  0  0  0  0  0  0  0  0  0
    3.5127   -3.1447    0.0000 C   0  0  0  0  0  0  0  0  0  0  0  0
    2.7281   -2.8898    0.0000 C   0  0  0  0  0  0  0  0  0  0  0  0
    2.1150   -3.4418    0.0000 C   0  0  0  0  0  0  0  0  0  0  0  0
    1.3303   -3.1869    0.0000 C   0  0  0  0  0  0  0  0  0  0  0  0
    1.1588   -2.3799    0.0000 N   0  0  0  0  0  0  0  0  0  0  0  0
    1.7719   -1.8279    0.0000 C   0  0  0  0  0  0  0  0  0  0  0  0
    1.6004   -1.0209    0.0000 N   0  0  0  0  0  0  0  0  0  0  0  0
    2.2135   -0.4689    0.0000 C   0  0  0  0  0  0  0  0  0  0  0  0
    2.0420    0.3381    0.0000 C   0  0  0  0  0  0  0  0  0  0  0  0
    2.6550    0.8901    0.0000 C   0  0  0  0  0  0  0  0  0  0  0  0
    3.4397    0.6352    0.0000 C   0  0  0  0  0  0  0  0  0  0  0  0
    3.6112   -0.1718    0.0000 C   0  0  0  0  0  0  0  0  0  0  0  0
    2.9981   -0.7238    0.0000 N   0  0  0  0  0  0  0  0  0  0  0  0
    4.0528    1.1872    0.0000 N   0  0  0  0  0  0  0  0  0  0  0  0
    3.8812    1.9942    0.0000 C   0  0  0  0  0  0  0  0  0  0  0  0
    4.4943    2.5462    0.0000 C   0  0  0  0  0  0  0  0  0  0  0  0
    5.2790    2.2913    0.0000 O   0  0  0  0  0  0  0  0  0  0  0  0
    5.4505    1.4843    0.0000 C   0  0  0  0  0  0  0  0  0  0  0  0
    4.8374    0.9323    0.0000 C   0  0  0  0  0  0  0  0  0  0  0  0
    2.5565   -2.0828    0.0000 N   0  0  0  0  0  0  0  0  0  0  0  0
  1  2  1  0  0  0  0
  2  3  1  0  0  0  0
  2  4  1  0  0  0  0
  2  5  1  0  0  0  0
  5  6  4  0  0  0  0
  6  7  4  0  0  0  0
  7  8  1  0  0  0  0
  8  9  1  0  0  0  0
  9 10  1  0  0  0  0
 10 11  1  0  0  0  0
 11 12  1  0  0  0  0
 12 13  1  0  0  0  0
  9 13  1  0  0  0  0
  7 14  4  0  0  0  0
 14 15  4  0  0  0  0
  5 15  4  0  0  0  0
 15 16  1  0  0  0  0
 16 17  4  0  0  0  0
 17 18  4  0  0  0  0
 18 19  4  0  0  0  0
 19 20  4  0  0  0  0
 20 21  1  0  0  0  0
 21 22  1  0  0  0  0
 22 23  4  0  0  0  0
 23 24  4  0  0  0  0
 24 25  4  0  0  0  0
 25 26  4  0  0  0  0
 26 27  4  0  0  0  0
 22 27  4  0  0  0  0
 25 28  1  0  0  0  0
 28 29  1  0  0  0  0
 29 30  1  0  0  0  0
 30 31  1  0  0  0  0
 31 32  1  0  0  0  0
 32 33  1  0  0  0  0
 28 33  1  0  0  0  0
 20 34  4  0  0  0  0
 16 34  4  0  0  0  0
M  END
> <BindingDB_ID/CHEMBL_ID>
50501585

> <pKi>
6.8

> <Target Name>
Cyclin-A2/Cyclin-dependent kinase 2

> <Target Source Organism>
Homo sapiens

> <Target Uniprot>
P24941

> <Article DOI>
10.1021/acs.jmedchem.6b01670

$$$$

  Mrv2316 09262419122D          

 37 41  0  0  0  0            999 V2000
    0.6078   10.9527    0.0000 C   0  0  0  0  0  0  0  0  0  0  0  0
    1.3222   10.5402    0.0000 C   0  0  0  0  0  0  0  0  0  0  0  0
    2.0367   10.9527    0.0000 O   0  0  0  0  0  0  0  0  0  0  0  0
    1.3222    9.7152    0.0000 N   0  0  0  0  0  0  0  0  0  0  0  0
    2.0367    9.3027    0.0000 C   0  0  0  0  0  0  0  0  0  0  0  0
    2.0367    8.4777    0.0000 C   0  0  0  0  0  0  0  0  0  0  0  0
    1.3222    8.0652    0.0000 N   0  0  0  0  0  0  0  0  0  0  0  0
    0.6078    8.4777    0.0000 C   0  0  0  0  0  0  0  0  0  0  0  0
    0.6078    9.3027    0.0000 C   0  0  0  0  0  0  0  0  0  0  0  0
    1.3222    7.2402    0.0000 C   0  0  0  0  0  0  0  0  0  0  0  0
    2.0367    6.8277    0.0000 C   0  0  0  0  0  0  0  0  0  0  0  0
    2.0367    6.0027    0.0000 C   0  0  0  0  0  0  0  0  0  0  0  0
    1.3222    5.5902    0.0000 C   0  0  0  0  0  0  0  0  0  0  0  0
    1.3222    4.7652    0.0000 N   0  0  0  0  0  0  0  0  0  0  0  0
    2.0367    4.3527    0.0000 C   0  0  0  0  0  0  0  0  0  0  0  0
    2.7512    4.7652    0.0000 N   0  0  0  0  0  0  0  0  0  0  0  0
    3.4656    4.3527    0.0000 C   0  0  0  0  0  0  0  0  0  0  0  0
    3.4656    3.5277    0.0000 C   0  0  0  0  0  0  0  0  0  0  0  0
    2.7512    3.1152    0.0000 C   0  0  0  0  0  0  0  0  0  0  0  0
    2.0367    3.5277    0.0000 N   0  0  0  0  0  0  0  0  0  0  0  0
    2.7512    2.2902    0.0000 C   0  0  0  0  0  0  0  0  0  0  0  0
    3.4186    1.8053    0.0000 S   0  0  0  0  0  0  0  0  0  0  0  0
    3.1637    1.0206    0.0000 C   0  0  0  0  0  0  0  0  0  0  0  0
    3.6486    0.3532    0.0000 N   0  0  0  0  0  0  0  0  0  0  0  0
    3.3130   -0.4005    0.0000 C   0  0  0  0  0  0  0  0  0  0  0  0
    3.7255   -1.1149    0.0000 C   0  0  0  0  0  0  0  0  0  0  0  0
    3.1735   -1.7280    0.0000 C   0  0  0  0  0  0  0  0  0  0  0  0
    2.4198   -1.3925    0.0000 C   0  0  0  0  0  0  0  0  0  0  0  0
    2.5061   -0.5720    0.0000 C   0  0  0  0  0  0  0  0  0  0  0  0
    2.3387    1.0206    0.0000 N   0  0  0  0  0  0  0  0  0  0  0  0
    2.0837    1.8053    0.0000 C   0  0  0  0  0  0  0  0  0  0  0  0
    1.2991    2.0602    0.0000 C   0  0  0  0  0  0  0  0  0  0  0  0
    0.5145    2.3151    0.0000 F   0  0  0  0  0  0  0  0  0  0  0  0
    1.5541    2.8448    0.0000 F   0  0  0  0  0  0  0  0  0  0  0  0
    1.0442    1.2756    0.0000 F   0  0  0  0  0  0  0  0  0  0  0  0
    0.6078    6.0027    0.0000 N   0  0  0  0  0  0  0  0  0  0  0  0
    0.6078    6.8277    0.0000 C   0  0  0  0  0  0  0  0  0  0  0  0
  1  2  1  0  0  0  0
  2  3  2  0  0  0  0
  2  4  1  0  0  0  0
  4  5  1  0  0  0  0
  5  6  1  0  0  0  0
  6  7  1  0  0  0  0
  7  8  1  0  0  0  0
  8  9  1  0  0  0  0
  4  9  1  0  0  0  0
  7 10  1  0  0  0  0
 10 11  4  0  0  0  0
 11 12  4  0  0  0  0
 12 13  4  0  0  0  0
 13 14  1  0  0  0  0
 14 15  1  0  0  0  0
 15 16  4  0  0  0  0
 16 17  4  0  0  0  0
 17 18  4  0  0  0  0
 18 19  4  0  0  0  0
 19 20  4  0  0  0  0
 15 20  4  0  0  0  0
 19 21  1  0  0  0  0
 21 22  4  0  0  0  0
 22 23  4  0  0  0  0
 23 24  1  0  0  0  0
 24 25  1  0  0  0  0
 25 26  1  0  0  0  0
 26 27  1  0  0  0  0
 27 28  1  0  0  0  0
 28 29  1  0  0  0  0
 25 29  1  0  0  0  0
 23 30  4  0  0  0  0
 30 31  4  0  0  0  0
 21 31  4  0  0  0  0
 31 32  1  0  0  0  0
 32 33  1  0  0  0  0
 32 34  1  0  0  0  0
 32 35  1  0  0  0  0
 13 36  4  0  0  0  0
 36 37  4  0  0  0  0
 10 37  4  0  0  0  0
M  END
> <BindingDB_ID/CHEMBL_ID>
50501586

> <pKi>
7.9

> <Target Name>
Cyclin-A2/Cyclin-dependent kinase 2

> <Target Source Organism>
Homo sapiens

> <Target Uniprot>
P24941

> <Article DOI>
10.1021/acs.jmedchem.6b01670

$$$$

  Mrv2316 09262419122D          

 35 39  0  0  0  0            999 V2000
    1.3222   10.5402    0.0000 C   0  0  0  0  0  0  0  0  0  0  0  0
    1.3222    9.7152    0.0000 N   0  0  0  0  0  0  0  0  0  0  0  0
    2.0367    9.3027    0.0000 C   0  0  0  0  0  0  0  0  0  0  0  0
    2.0367    8.4777    0.0000 C   0  0  0  0  0  0  0  0  0  0  0  0
    1.3222    8.0652    0.0000 N   0  0  0  0  0  0  0  0  0  0  0  0
    0.6078    8.4777    0.0000 C   0  0  0  0  0  0  0  0  0  0  0  0
    0.6078    9.3027    0.0000 C   0  0  0  0  0  0  0  0  0  0  0  0
    1.3222    7.2402    0.0000 C   0  0  0  0  0  0  0  0  0  0  0  0
    2.0367    6.8277    0.0000 C   0  0  0  0  0  0  0  0  0  0  0  0
    2.0367    6.0027    0.0000 C   0  0  0  0  0  0  0  0  0  0  0  0
    1.3222    5.5902    0.0000 C   0  0  0  0  0  0  0  0  0  0  0  0
    1.3222    4.7652    0.0000 N   0  0  0  0  0  0  0  0  0  0  0  0
    2.0367    4.3527    0.0000 C   0  0  0  0  0  0  0  0  0  0  0  0
    2.7512    4.7652    0.0000 N   0  0  0  0  0  0  0  0  0  0  0  0
    3.4656    4.3527    0.0000 C   0  0  0  0  0  0  0  0  0  0  0  0
    3.4656    3.5277    0.0000 C   0  0  0  0  0  0  0  0  0  0  0  0
    2.7512    3.1152    0.0000 C   0  0  0  0  0  0  0  0  0  0  0  0
    2.0367    3.5277    0.0000 N   0  0  0  0  0  0  0  0  0  0  0  0
    2.7512    2.2902    0.0000 C   0  0  0  0  0  0  0  0  0  0  0  0
    3.4186    1.8053    0.0000 S   0  0  0  0  0  0  0  0  0  0  0  0
    3.1637    1.0206    0.0000 C   0  0  0  0  0  0  0  0  0  0  0  0
    3.6486    0.3532    0.0000 N   0  0  0  0  0  0  0  0  0  0  0  0
    3.3130   -0.4005    0.0000 C   0  0  0  0  0  0  0  0  0  0  0  0
    3.7255   -1.1149    0.0000 C   0  0  0  0  0  0  0  0  0  0  0  0
    3.1735   -1.7280    0.0000 C   0  0  0  0  0  0  0  0  0  0  0  0
    2.4198   -1.3925    0.0000 C   0  0  0  0  0  0  0  0  0  0  0  0
    2.5061   -0.5720    0.0000 C   0  0  0  0  0  0  0  0  0  0  0  0
    2.3387    1.0206    0.0000 N   0  0  0  0  0  0  0  0  0  0  0  0
    2.0837    1.8053    0.0000 C   0  0  0  0  0  0  0  0  0  0  0  0
    1.2991    2.0602    0.0000 C   0  0  0  0  0  0  0  0  0  0  0  0
    0.5145    2.3151    0.0000 F   0  0  0  0  0  0  0  0  0  0  0  0
    1.5541    2.8448    0.0000 F   0  0  0  0  0  0  0  0  0  0  0  0
    1.0442    1.2756    0.0000 F   0  0  0  0  0  0  0  0  0  0  0  0
    0.6078    6.0027    0.0000 N   0  0  0  0  0  0  0  0  0  0  0  0
    0.6078    6.8277    0.0000 C   0  0  0  0  0  0  0  0  0  0  0  0
  1  2  1  0  0  0  0
  2  3  1  0  0  0  0
  3  4  1  0  0  0  0
  4  5  1  0  0  0  0
  5  6  1  0  0  0  0
  6  7  1  0  0  0  0
  2  7  1  0  0  0  0
  5  8  1  0  0  0  0
  8  9  4  0  0  0  0
  9 10  4  0  0  0  0
 10 11  4  0  0  0  0
 11 12  1  0  0  0  0
 12 13  1  0  0  0  0
 13 14  4  0  0  0  0
 14 15  4  0  0  0  0
 15 16  4  0  0  0  0
 16 17  4  0  0  0  0
 17 18  4  0  0  0  0
 13 18  4  0  0  0  0
 17 19  1  0  0  0  0
 19 20  4  0  0  0  0
 20 21  4  0  0  0  0
 21 22  1  0  0  0  0
 22 23  1  0  0  0  0
 23 24  1  0  0  0  0
 24 25  1  0  0  0  0
 25 26  1  0  0  0  0
 26 27  1  0  0  0  0
 23 27  1  0  0  0  0
 21 28  4  0  0  0  0
 28 29  4  0  0  0  0
 19 29  4  0  0  0  0
 29 30  1  0  0  0  0
 30 31  1  0  0  0  0
 30 32  1  0  0  0  0
 30 33  1  0  0  0  0
 11 34  4  0  0  0  0
 34 35  4  0  0  0  0
  8 35  4  0  0  0  0
M  END
> <BindingDB_ID/CHEMBL_ID>
50501587

> <pKi>
7.7

> <Target Name>
Cyclin-A2/Cyclin-dependent kinase 2

> <Target Source Organism>
Homo sapiens

> <Target Uniprot>
P24941

> <Article DOI>
10.1021/acs.jmedchem.6b01670

$$$$

  Mrv2316 09262419122D          

 34 38  0  0  0  0            999 V2000
    4.1801   -1.0098    0.0000 F   0  0  0  0  0  0  0  0  0  0  0  0
    4.1801   -1.8348    0.0000 C   0  0  0  0  0  0  0  0  0  0  0  0
    3.3551   -1.8348    0.0000 F   0  0  0  0  0  0  0  0  0  0  0  0
    5.0051   -1.8348    0.0000 F   0  0  0  0  0  0  0  0  0  0  0  0
    4.1801   -2.6598    0.0000 C   0  0  0  0  0  0  0  0  0  0  0  0
    4.8476   -3.1447    0.0000 N   0  0  0  0  0  0  0  0  0  0  0  0
    4.5926   -3.9294    0.0000 C   0  0  0  0  0  0  0  0  0  0  0  0
    5.0775   -4.5968    0.0000 N   0  0  0  0  0  0  0  0  0  0  0  0
    5.8980   -4.5106    0.0000 C   0  0  0  0  0  0  0  0  0  0  0  0
    6.3105   -3.7961    0.0000 C   0  0  0  0  0  0  0  0  0  0  0  0
    7.1175   -3.9676    0.0000 C   0  0  0  0  0  0  0  0  0  0  0  0
    7.2037   -4.7881    0.0000 C   0  0  0  0  0  0  0  0  0  0  0  0
    6.4501   -5.1237    0.0000 C   0  0  0  0  0  0  0  0  0  0  0  0
    3.7676   -3.9294    0.0000 S   0  0  0  0  0  0  0  0  0  0  0  0
    3.5127   -3.1447    0.0000 C   0  0  0  0  0  0  0  0  0  0  0  0
    2.7281   -2.8898    0.0000 C   0  0  0  0  0  0  0  0  0  0  0  0
    2.1150   -3.4418    0.0000 C   0  0  0  0  0  0  0  0  0  0  0  0
    1.3303   -3.1869    0.0000 C   0  0  0  0  0  0  0  0  0  0  0  0
    1.1588   -2.3799    0.0000 N   0  0  0  0  0  0  0  0  0  0  0  0
    1.7719   -1.8279    0.0000 C   0  0  0  0  0  0  0  0  0  0  0  0
    1.6004   -1.0209    0.0000 N   0  0  0  0  0  0  0  0  0  0  0  0
    2.2135   -0.4689    0.0000 C   0  0  0  0  0  0  0  0  0  0  0  0
    2.0420    0.3381    0.0000 C   0  0  0  0  0  0  0  0  0  0  0  0
    2.6550    0.8901    0.0000 C   0  0  0  0  0  0  0  0  0  0  0  0
    3.4397    0.6352    0.0000 C   0  0  0  0  0  0  0  0  0  0  0  0
    3.6112   -0.1718    0.0000 C   0  0  0  0  0  0  0  0  0  0  0  0
    2.9981   -0.7238    0.0000 N   0  0  0  0  0  0  0  0  0  0  0  0
    4.0528    1.1872    0.0000 N   0  0  0  0  0  0  0  0  0  0  0  0
    3.8812    1.9942    0.0000 C   0  0  0  0  0  0  0  0  0  0  0  0
    4.4943    2.5462    0.0000 C   0  0  0  0  0  0  0  0  0  0  0  0
    5.2790    2.2913    0.0000 N   0  0  0  0  0  0  0  0  0  0  0  0
    5.4505    1.4843    0.0000 C   0  0  0  0  0  0  0  0  0  0  0  0
    4.8374    0.9323    0.0000 C   0  0  0  0  0  0  0  0  0  0  0  0
    2.5565   -2.0828    0.0000 N   0  0  0  0  0  0  0  0  0  0  0  0
  1  2  1  0  0  0  0
  2  3  1  0  0  0  0
  2  4  1  0  0  0  0
  2  5  1  0  0  0  0
  5  6  4  0  0  0  0
  6  7  4  0  0  0  0
  7  8  1  0  0  0  0
  8  9  1  0  0  0  0
  9 10  1  0  0  0  0
 10 11  1  0  0  0  0
 11 12  1  0  0  0  0
 12 13  1  0  0  0  0
  9 13  1  0  0  0  0
  7 14  4  0  0  0  0
 14 15  4  0  0  0  0
  5 15  4  0  0  0  0
 15 16  1  0  0  0  0
 16 17  4  0  0  0  0
 17 18  4  0  0  0  0
 18 19  4  0  0  0  0
 19 20  4  0  0  0  0
 20 21  1  0  0  0  0
 21 22  1  0  0  0  0
 22 23  4  0  0  0  0
 23 24  4  0  0  0  0
 24 25  4  0  0  0  0
 25 26  4  0  0  0  0
 26 27  4  0  0  0  0
 22 27  4  0  0  0  0
 25 28  1  0  0  0  0
 28 29  1  0  0  0  0
 29 30  1  0  0  0  0
 30 31  1  0  0  0  0
 31 32  1  0  0  0  0
 32 33  1  0  0  0  0
 28 33  1  0  0  0  0
 20 34  4  0  0  0  0
 16 34  4  0  0  0  0
M  END
> <BindingDB_ID/CHEMBL_ID>
50501588

> <pKi>
7.7

> <Target Name>
Cyclin-A2/Cyclin-dependent kinase 2

> <Target Source Organism>
Homo sapiens

> <Target Uniprot>
P24941

> <Article DOI>
10.1021/acs.jmedchem.6b01670

$$$$

  Mrv2316 09262419122D          

 29 32  0  0  0  0            999 V2000
    4.8946   -0.5973    0.0000 C   0  0  0  0  0  0  0  0  0  0  0  0
    4.8946   -1.4223    0.0000 C   0  0  0  0  0  0  0  0  0  0  0  0
    5.6091   -1.8348    0.0000 C   0  0  0  0  0  0  0  0  0  0  0  0
    4.1801   -1.8348    0.0000 N   0  0  0  0  0  0  0  0  0  0  0  0
    4.1801   -2.6598    0.0000 C   0  0  0  0  0  0  0  0  0  0  0  0
    4.8476   -3.1447    0.0000 N   0  0  0  0  0  0  0  0  0  0  0  0
    4.5926   -3.9294    0.0000 C   0  0  0  0  0  0  0  0  0  0  0  0
    5.0775   -4.5968    0.0000 C   0  0  0  0  0  0  0  0  0  0  0  0
    3.7676   -3.9294    0.0000 C   0  0  0  0  0  0  0  0  0  0  0  0
    3.5127   -3.1447    0.0000 S   0  0  0  0  0  0  0  0  0  0  0  0
    3.2827   -4.5968    0.0000 C   0  0  0  0  0  0  0  0  0  0  0  0
    3.6183   -5.3505    0.0000 C   0  0  0  0  0  0  0  0  0  0  0  0
    3.1333   -6.0179    0.0000 C   0  0  0  0  0  0  0  0  0  0  0  0
    2.3129   -5.9317    0.0000 N   0  0  0  0  0  0  0  0  0  0  0  0
    1.9773   -5.1780    0.0000 C   0  0  0  0  0  0  0  0  0  0  0  0
    1.1568   -5.0918    0.0000 N   0  0  0  0  0  0  0  0  0  0  0  0
    0.8213   -4.3381    0.0000 C   0  0  0  0  0  0  0  0  0  0  0  0
    0.0008   -4.2519    0.0000 C   0  0  0  0  0  0  0  0  0  0  0  0
   -0.3348   -3.4982    0.0000 C   0  0  0  0  0  0  0  0  0  0  0  0
    0.1501   -2.8307    0.0000 C   0  0  0  0  0  0  0  0  0  0  0  0
    0.9706   -2.9170    0.0000 C   0  0  0  0  0  0  0  0  0  0  0  0
    1.3062   -3.6707    0.0000 N   0  0  0  0  0  0  0  0  0  0  0  0
   -0.1854   -2.0771    0.0000 N   0  0  0  0  0  0  0  0  0  0  0  0
   -1.0059   -1.9908    0.0000 C   0  0  0  0  0  0  0  0  0  0  0  0
   -1.3415   -1.2372    0.0000 C   0  0  0  0  0  0  0  0  0  0  0  0
   -0.8565   -0.5697    0.0000 O   0  0  0  0  0  0  0  0  0  0  0  0
   -0.0361   -0.6560    0.0000 C   0  0  0  0  0  0  0  0  0  0  0  0
    0.2995   -1.4096    0.0000 C   0  0  0  0  0  0  0  0  0  0  0  0
    2.4622   -4.5106    0.0000 N   0  0  0  0  0  0  0  0  0  0  0  0
  1  2  1  0  0  0  0
  2  3  1  0  0  0  0
  2  4  1  0  0  0  0
  4  5  1  0  0  0  0
  5  6  4  0  0  0  0
  6  7  4  0  0  0  0
  7  8  1  0  0  0  0
  7  9  4  0  0  0  0
  9 10  4  0  0  0  0
  5 10  4  0  0  0  0
  9 11  1  0  0  0  0
 11 12  4  0  0  0  0
 12 13  4  0  0  0  0
 13 14  4  0  0  0  0
 14 15  4  0  0  0  0
 15 16  1  0  0  0  0
 16 17  1  0  0  0  0
 17 18  4  0  0  0  0
 18 19  4  0  0  0  0
 19 20  4  0  0  0  0
 20 21  4  0  0  0  0
 21 22  4  0  0  0  0
 17 22  4  0  0  0  0
 20 23  1  0  0  0  0
 23 24  1  0  0  0  0
 24 25  1  0  0  0  0
 25 26  1  0  0  0  0
 26 27  1  0  0  0  0
 27 28  1  0  0  0  0
 23 28  1  0  0  0  0
 15 29  4  0  0  0  0
 11 29  4  0  0  0  0
M  END
> <BindingDB_ID/CHEMBL_ID>
50501589

> <pKi>
6.9

> <Target Name>
Cyclin-A2/Cyclin-dependent kinase 2

> <Target Source Organism>
Homo sapiens

> <Target Uniprot>
P24941

> <Article DOI>
10.1021/acs.jmedchem.6b01670

$$$$

  Mrv2316 09262419122D          

 32 35  0  0  0  0            999 V2000
    4.8946   -0.5973    0.0000 C   0  0  0  0  0  0  0  0  0  0  0  0
    4.8946   -1.4223    0.0000 C   0  0  0  0  0  0  0  0  0  0  0  0
    5.6091   -1.8348    0.0000 C   0  0  0  0  0  0  0  0  0  0  0  0
    4.1801   -1.8348    0.0000 N   0  0  0  0  0  0  0  0  0  0  0  0
    4.1801   -2.6598    0.0000 C   0  0  0  0  0  0  0  0  0  0  0  0
    4.8476   -3.1447    0.0000 N   0  0  0  0  0  0  0  0  0  0  0  0
    4.5926   -3.9294    0.0000 C   0  0  0  0  0  0  0  0  0  0  0  0
    5.0775   -4.5968    0.0000 C   0  0  0  0  0  0  0  0  0  0  0  0
    3.7676   -3.9294    0.0000 C   0  0  0  0  0  0  0  0  0  0  0  0
    3.5127   -3.1447    0.0000 S   0  0  0  0  0  0  0  0  0  0  0  0
    3.2827   -4.5968    0.0000 C   0  0  0  0  0  0  0  0  0  0  0  0
    3.6183   -5.3505    0.0000 C   0  0  0  0  0  0  0  0  0  0  0  0
    3.1333   -6.0179    0.0000 C   0  0  0  0  0  0  0  0  0  0  0  0
    2.3129   -5.9317    0.0000 N   0  0  0  0  0  0  0  0  0  0  0  0
    1.9773   -5.1780    0.0000 C   0  0  0  0  0  0  0  0  0  0  0  0
    1.1568   -5.0918    0.0000 N   0  0  0  0  0  0  0  0  0  0  0  0
    0.8213   -4.3381    0.0000 C   0  0  0  0  0  0  0  0  0  0  0  0
    0.0008   -4.2519    0.0000 C   0  0  0  0  0  0  0  0  0  0  0  0
   -0.3348   -3.4982    0.0000 C   0  0  0  0  0  0  0  0  0  0  0  0
    0.1501   -2.8307    0.0000 C   0  0  0  0  0  0  0  0  0  0  0  0
    0.9706   -2.9170    0.0000 C   0  0  0  0  0  0  0  0  0  0  0  0
    1.3062   -3.6707    0.0000 N   0  0  0  0  0  0  0  0  0  0  0  0
   -0.1854   -2.0771    0.0000 N   0  0  0  0  0  0  0  0  0  0  0  0
   -1.0059   -1.9908    0.0000 C   0  0  0  0  0  0  0  0  0  0  0  0
   -1.3415   -1.2372    0.0000 C   0  0  0  0  0  0  0  0  0  0  0  0
   -0.8565   -0.5697    0.0000 N   0  0  0  0  0  0  0  0  0  0  0  0
   -0.0361   -0.6560    0.0000 C   0  0  0  0  0  0  0  0  0  0  0  0
    0.2995   -1.4096    0.0000 C   0  0  0  0  0  0  0  0  0  0  0  0
   -1.1921    0.1840    0.0000 C   0  0  0  0  0  0  0  0  0  0  0  0
   -2.0126    0.2702    0.0000 C   0  0  0  0  0  0  0  0  0  0  0  0
   -0.7072    0.8514    0.0000 O   0  0  0  0  0  0  0  0  0  0  0  0
    2.4622   -4.5106    0.0000 N   0  0  0  0  0  0  0  0  0  0  0  0
  1  2  1  0  0  0  0
  2  3  1  0  0  0  0
  2  4  1  0  0  0  0
  4  5  1  0  0  0  0
  5  6  4  0  0  0  0
  6  7  4  0  0  0  0
  7  8  1  0  0  0  0
  7  9  4  0  0  0  0
  9 10  4  0  0  0  0
  5 10  4  0  0  0  0
  9 11  1  0  0  0  0
 11 12  4  0  0  0  0
 12 13  4  0  0  0  0
 13 14  4  0  0  0  0
 14 15  4  0  0  0  0
 15 16  1  0  0  0  0
 16 17  1  0  0  0  0
 17 18  4  0  0  0  0
 18 19  4  0  0  0  0
 19 20  4  0  0  0  0
 20 21  4  0  0  0  0
 21 22  4  0  0  0  0
 17 22  4  0  0  0  0
 20 23  1  0  0  0  0
 23 24  1  0  0  0  0
 24 25  1  0  0  0  0
 25 26  1  0  0  0  0
 26 27  1  0  0  0  0
 27 28  1  0  0  0  0
 23 28  1  0  0  0  0
 26 29  1  0  0  0  0
 29 30  1  0  0  0  0
 29 31  2  0  0  0  0
 15 32  4  0  0  0  0
 11 32  4  0  0  0  0
M  END
> <BindingDB_ID/CHEMBL_ID>
50501590

> <pKi>
6.7

> <Target Name>
Cyclin-A2/Cyclin-dependent kinase 2

> <Target Source Organism>
Homo sapiens

> <Target Uniprot>
P24941

> <Article DOI>
10.1021/acs.jmedchem.6b01670

$$$$

  Mrv2316 09262419122D          

 30 33  0  0  0  0            999 V2000
    4.8946   -0.5973    0.0000 C   0  0  0  0  0  0  0  0  0  0  0  0
    4.8946   -1.4223    0.0000 C   0  0  0  0  0  0  0  0  0  0  0  0
    5.6091   -1.8348    0.0000 C   0  0  0  0  0  0  0  0  0  0  0  0
    4.1801   -1.8348    0.0000 N   0  0  0  0  0  0  0  0  0  0  0  0
    4.1801   -2.6598    0.0000 C   0  0  0  0  0  0  0  0  0  0  0  0
    4.8476   -3.1447    0.0000 N   0  0  0  0  0  0  0  0  0  0  0  0
    4.5926   -3.9294    0.0000 C   0  0  0  0  0  0  0  0  0  0  0  0
    5.0775   -4.5968    0.0000 C   0  0  0  0  0  0  0  0  0  0  0  0
    3.7676   -3.9294    0.0000 C   0  0  0  0  0  0  0  0  0  0  0  0
    3.5127   -3.1447    0.0000 S   0  0  0  0  0  0  0  0  0  0  0  0
    3.2827   -4.5968    0.0000 C   0  0  0  0  0  0  0  0  0  0  0  0
    3.6183   -5.3505    0.0000 C   0  0  0  0  0  0  0  0  0  0  0  0
    3.1333   -6.0179    0.0000 C   0  0  0  0  0  0  0  0  0  0  0  0
    2.3129   -5.9317    0.0000 N   0  0  0  0  0  0  0  0  0  0  0  0
    1.9773   -5.1780    0.0000 C   0  0  0  0  0  0  0  0  0  0  0  0
    1.1568   -5.0918    0.0000 N   0  0  0  0  0  0  0  0  0  0  0  0
    0.8213   -4.3381    0.0000 C   0  0  0  0  0  0  0  0  0  0  0  0
    0.0008   -4.2519    0.0000 C   0  0  0  0  0  0  0  0  0  0  0  0
   -0.3348   -3.4982    0.0000 C   0  0  0  0  0  0  0  0  0  0  0  0
    0.1501   -2.8307    0.0000 C   0  0  0  0  0  0  0  0  0  0  0  0
    0.9706   -2.9170    0.0000 C   0  0  0  0  0  0  0  0  0  0  0  0
    1.3062   -3.6707    0.0000 N   0  0  0  0  0  0  0  0  0  0  0  0
   -0.1854   -2.0771    0.0000 N   0  0  0  0  0  0  0  0  0  0  0  0
   -1.0059   -1.9908    0.0000 C   0  0  0  0  0  0  0  0  0  0  0  0
   -1.3415   -1.2372    0.0000 C   0  0  0  0  0  0  0  0  0  0  0  0
   -0.8565   -0.5697    0.0000 N   0  0  0  0  0  0  0  0  0  0  0  0
   -1.1921    0.1840    0.0000 C   0  0  0  0  0  0  0  0  0  0  0  0
   -0.0361   -0.6560    0.0000 C   0  0  0  0  0  0  0  0  0  0  0  0
    0.2995   -1.4096    0.0000 C   0  0  0  0  0  0  0  0  0  0  0  0
    2.4622   -4.5106    0.0000 N   0  0  0  0  0  0  0  0  0  0  0  0
  1  2  1  0  0  0  0
  2  3  1  0  0  0  0
  2  4  1  0  0  0  0
  4  5  1  0  0  0  0
  5  6  4  0  0  0  0
  6  7  4  0  0  0  0
  7  8  1  0  0  0  0
  7  9  4  0  0  0  0
  9 10  4  0  0  0  0
  5 10  4  0  0  0  0
  9 11  1  0  0  0  0
 11 12  4  0  0  0  0
 12 13  4  0  0  0  0
 13 14  4  0  0  0  0
 14 15  4  0  0  0  0
 15 16  1  0  0  0  0
 16 17  1  0  0  0  0
 17 18  4  0  0  0  0
 18 19  4  0  0  0  0
 19 20  4  0  0  0  0
 20 21  4  0  0  0  0
 21 22  4  0  0  0  0
 17 22  4  0  0  0  0
 20 23  1  0  0  0  0
 23 24  1  0  0  0  0
 24 25  1  0  0  0  0
 25 26  1  0  0  0  0
 26 27  1  0  0  0  0
 26 28  1  0  0  0  0
 28 29  1  0  0  0  0
 23 29  1  0  0  0  0
 15 30  4  0  0  0  0
 11 30  4  0  0  0  0
M  END
> <BindingDB_ID/CHEMBL_ID>
50501591

> <pKi>
6.4

> <Target Name>
Cyclin-A2/Cyclin-dependent kinase 2

> <Target Source Organism>
Homo sapiens

> <Target Uniprot>
P24941

> <Article DOI>
10.1021/acs.jmedchem.6b01670

$$$$

  Mrv2316 09262419122D          

 30 33  0  0  0  0            999 V2000
    4.0820   -1.3964    0.0000 C   0  0  0  0  0  0  0  0  0  0  0  0
    4.0820   -2.2214    0.0000 C   0  0  0  0  0  0  0  0  0  0  0  0
    4.7965   -2.6339    0.0000 C   0  0  0  0  0  0  0  0  0  0  0  0
    3.3675   -2.6339    0.0000 N   0  0  0  0  0  0  0  0  0  0  0  0
    3.3675   -3.4589    0.0000 C   0  0  0  0  0  0  0  0  0  0  0  0
    4.0350   -3.9439    0.0000 N   0  0  0  0  0  0  0  0  0  0  0  0
    3.7800   -4.7285    0.0000 C   0  0  0  0  0  0  0  0  0  0  0  0
    4.2650   -5.3959    0.0000 C   0  0  0  0  0  0  0  0  0  0  0  0
    2.9550   -4.7285    0.0000 C   0  0  0  0  0  0  0  0  0  0  0  0
    2.7001   -3.9439    0.0000 S   0  0  0  0  0  0  0  0  0  0  0  0
    2.4701   -5.3959    0.0000 C   0  0  0  0  0  0  0  0  0  0  0  0
    2.8057   -6.1496    0.0000 C   0  0  0  0  0  0  0  0  0  0  0  0
    2.3207   -6.8170    0.0000 C   0  0  0  0  0  0  0  0  0  0  0  0
    1.5003   -6.7308    0.0000 N   0  0  0  0  0  0  0  0  0  0  0  0
    1.1647   -5.9771    0.0000 C   0  0  0  0  0  0  0  0  0  0  0  0
    0.3442   -5.8909    0.0000 N   0  0  0  0  0  0  0  0  0  0  0  0
    0.0087   -5.1372    0.0000 C   0  0  0  0  0  0  0  0  0  0  0  0
   -0.8118   -5.0510    0.0000 C   0  0  0  0  0  0  0  0  0  0  0  0
   -1.1474   -4.2973    0.0000 C   0  0  0  0  0  0  0  0  0  0  0  0
   -0.6624   -3.6299    0.0000 C   0  0  0  0  0  0  0  0  0  0  0  0
    0.1580   -3.7161    0.0000 C   0  0  0  0  0  0  0  0  0  0  0  0
    0.4936   -4.4698    0.0000 N   0  0  0  0  0  0  0  0  0  0  0  0
   -0.9980   -2.8762    0.0000 N   0  0  0  0  0  0  0  0  0  0  0  0
   -1.8226   -2.8515    0.0000 C   0  0  0  0  0  0  0  0  0  0  0  0
   -2.3175   -2.1914    0.0000 C   0  0  0  0  0  0  0  0  0  0  0  0
   -2.1099   -1.3929    0.0000 C   0  0  0  0  0  0  0  0  0  0  0  0
   -1.3563   -1.0574    0.0000 N   0  0  0  0  0  0  0  0  0  0  0  0
   -0.6240   -1.4374    0.0000 C   0  0  0  0  0  0  0  0  0  0  0  0
   -0.4646   -2.2469    0.0000 C   0  0  0  0  0  0  0  0  0  0  0  0
    1.6496   -5.3097    0.0000 N   0  0  0  0  0  0  0  0  0  0  0  0
  1  2  1  0  0  0  0
  2  3  1  0  0  0  0
  2  4  1  0  0  0  0
  4  5  1  0  0  0  0
  5  6  4  0  0  0  0
  6  7  4  0  0  0  0
  7  8  1  0  0  0  0
  7  9  4  0  0  0  0
  9 10  4  0  0  0  0
  5 10  4  0  0  0  0
  9 11  1  0  0  0  0
 11 12  4  0  0  0  0
 12 13  4  0  0  0  0
 13 14  4  0  0  0  0
 14 15  4  0  0  0  0
 15 16  1  0  0  0  0
 16 17  1  0  0  0  0
 17 18  4  0  0  0  0
 18 19  4  0  0  0  0
 19 20  4  0  0  0  0
 20 21  4  0  0  0  0
 21 22  4  0  0  0  0
 17 22  4  0  0  0  0
 20 23  1  0  0  0  0
 23 24  1  0  0  0  0
 24 25  1  0  0  0  0
 25 26  1  0  0  0  0
 26 27  1  0  0  0  0
 27 28  1  0  0  0  0
 28 29  1  0  0  0  0
 23 29  1  0  0  0  0
 15 30  4  0  0  0  0
 11 30  4  0  0  0  0
M  END
> <BindingDB_ID/CHEMBL_ID>
50501592

> <pKi>
6.1

> <Target Name>
Cyclin-A2/Cyclin-dependent kinase 2

> <Target Source Organism>
Homo sapiens

> <Target Uniprot>
P24941

> <Article DOI>
10.1021/acs.jmedchem.6b01670

$$$$

  Mrv2316 09262419122D          

 29 32  0  0  0  0            999 V2000
    4.8946   -0.5973    0.0000 C   0  0  0  0  0  0  0  0  0  0  0  0
    4.8946   -1.4223    0.0000 C   0  0  0  0  0  0  0  0  0  0  0  0
    5.6091   -1.8348    0.0000 C   0  0  0  0  0  0  0  0  0  0  0  0
    4.1801   -1.8348    0.0000 N   0  0  0  0  0  0  0  0  0  0  0  0
    4.1801   -2.6598    0.0000 C   0  0  0  0  0  0  0  0  0  0  0  0
    4.8476   -3.1447    0.0000 N   0  0  0  0  0  0  0  0  0  0  0  0
    4.5926   -3.9294    0.0000 C   0  0  0  0  0  0  0  0  0  0  0  0
    5.0775   -4.5968    0.0000 C   0  0  0  0  0  0  0  0  0  0  0  0
    3.7676   -3.9294    0.0000 C   0  0  0  0  0  0  0  0  0  0  0  0
    3.5127   -3.1447    0.0000 S   0  0  0  0  0  0  0  0  0  0  0  0
    3.2827   -4.5968    0.0000 C   0  0  0  0  0  0  0  0  0  0  0  0
    3.6183   -5.3505    0.0000 C   0  0  0  0  0  0  0  0  0  0  0  0
    3.1333   -6.0179    0.0000 C   0  0  0  0  0  0  0  0  0  0  0  0
    2.3129   -5.9317    0.0000 N   0  0  0  0  0  0  0  0  0  0  0  0
    1.9773   -5.1780    0.0000 C   0  0  0  0  0  0  0  0  0  0  0  0
    1.1568   -5.0918    0.0000 N   0  0  0  0  0  0  0  0  0  0  0  0
    0.8213   -4.3381    0.0000 C   0  0  0  0  0  0  0  0  0  0  0  0
    0.0008   -4.2519    0.0000 C   0  0  0  0  0  0  0  0  0  0  0  0
   -0.3348   -3.4982    0.0000 C   0  0  0  0  0  0  0  0  0  0  0  0
    0.1501   -2.8307    0.0000 C   0  0  0  0  0  0  0  0  0  0  0  0
    0.9706   -2.9170    0.0000 C   0  0  0  0  0  0  0  0  0  0  0  0
    1.3062   -3.6707    0.0000 N   0  0  0  0  0  0  0  0  0  0  0  0
   -0.1854   -2.0771    0.0000 N   0  0  0  0  0  0  0  0  0  0  0  0
   -1.0059   -1.9908    0.0000 C   0  0  0  0  0  0  0  0  0  0  0  0
   -1.3415   -1.2372    0.0000 C   0  0  0  0  0  0  0  0  0  0  0  0
   -0.8565   -0.5697    0.0000 N   0  0  0  0  0  0  0  0  0  0  0  0
   -0.0361   -0.6560    0.0000 C   0  0  0  0  0  0  0  0  0  0  0  0
    0.2995   -1.4096    0.0000 C   0  0  0  0  0  0  0  0  0  0  0  0
    2.4622   -4.5106    0.0000 N   0  0  0  0  0  0  0  0  0  0  0  0
  1  2  1  0  0  0  0
  2  3  1  0  0  0  0
  2  4  1  0  0  0  0
  4  5  1  0  0  0  0
  5  6  4  0  0  0  0
  6  7  4  0  0  0  0
  7  8  1  0  0  0  0
  7  9  4  0  0  0  0
  9 10  4  0  0  0  0
  5 10  4  0  0  0  0
  9 11  1  0  0  0  0
 11 12  4  0  0  0  0
 12 13  4  0  0  0  0
 13 14  4  0  0  0  0
 14 15  4  0  0  0  0
 15 16  1  0  0  0  0
 16 17  1  0  0  0  0
 17 18  4  0  0  0  0
 18 19  4  0  0  0  0
 19 20  4  0  0  0  0
 20 21  4  0  0  0  0
 21 22  4  0  0  0  0
 17 22  4  0  0  0  0
 20 23  1  0  0  0  0
 23 24  1  0  0  0  0
 24 25  1  0  0  0  0
 25 26  1  0  0  0  0
 26 27  1  0  0  0  0
 27 28  1  0  0  0  0
 23 28  1  0  0  0  0
 15 29  4  0  0  0  0
 11 29  4  0  0  0  0
M  END
> <BindingDB_ID/CHEMBL_ID>
50501593

> <pKi>
6.6

> <Target Name>
Cyclin-A2/Cyclin-dependent kinase 2

> <Target Source Organism>
Homo sapiens

> <Target Uniprot>
P24941

> <Article DOI>
10.1021/acs.jmedchem.6b01670

$$$$

  Mrv2316 09262419122D          

 34 38  0  0  0  0            999 V2000
    1.3222   -0.0616    0.0000 C   0  0  0  0  0  0  0  0  0  0  0  0
    2.0367   -0.4741    0.0000 N   0  0  0  0  0  0  0  0  0  0  0  0
    2.0367   -1.2991    0.0000 C   0  0  0  0  0  0  0  0  0  0  0  0
    2.7041   -1.7840    0.0000 N   0  0  0  0  0  0  0  0  0  0  0  0
    2.4492   -2.5687    0.0000 C   0  0  0  0  0  0  0  0  0  0  0  0
    2.9341   -3.2361    0.0000 C   0  0  0  0  0  0  0  0  0  0  0  0
    1.6242   -2.5687    0.0000 C   0  0  0  0  0  0  0  0  0  0  0  0
    1.3693   -1.7840    0.0000 S   0  0  0  0  0  0  0  0  0  0  0  0
    1.1393   -3.2361    0.0000 C   0  0  0  0  0  0  0  0  0  0  0  0
    1.4748   -3.9898    0.0000 C   0  0  0  0  0  0  0  0  0  0  0  0
    0.9899   -4.6572    0.0000 C   0  0  0  0  0  0  0  0  0  0  0  0
    0.1694   -4.5710    0.0000 N   0  0  0  0  0  0  0  0  0  0  0  0
   -0.1661   -3.8173    0.0000 C   0  0  0  0  0  0  0  0  0  0  0  0
   -0.9866   -3.7311    0.0000 N   0  0  0  0  0  0  0  0  0  0  0  0
   -1.4715   -4.3985    0.0000 C   0  0  0  0  0  0  0  0  0  0  0  0
   -1.1360   -5.1522    0.0000 C   0  0  0  0  0  0  0  0  0  0  0  0
   -1.6209   -5.8196    0.0000 C   0  0  0  0  0  0  0  0  0  0  0  0
   -2.4414   -5.7334    0.0000 C   0  0  0  0  0  0  0  0  0  0  0  0
   -2.7769   -4.9797    0.0000 C   0  0  0  0  0  0  0  0  0  0  0  0
   -2.2920   -4.3123    0.0000 N   0  0  0  0  0  0  0  0  0  0  0  0
   -2.9263   -6.4008    0.0000 N   0  0  0  0  0  0  0  0  0  0  0  0
   -2.5907   -7.1545    0.0000 C   0  0  0  0  0  0  0  0  0  0  0  0
   -3.0757   -7.8219    0.0000 C   0  0  0  0  0  0  0  0  0  0  0  0
   -3.8961   -7.7357    0.0000 N   0  0  0  0  0  0  0  0  0  0  0  0
   -4.3811   -8.4031    0.0000 C   0  0  0  0  0  0  0  0  0  0  0  0
   -4.2317   -6.9820    0.0000 C   0  0  0  0  0  0  0  0  0  0  0  0
   -3.7468   -6.3146    0.0000 C   0  0  0  0  0  0  0  0  0  0  0  0
    0.3188   -3.1499    0.0000 N   0  0  0  0  0  0  0  0  0  0  0  0
    2.7512   -0.0616    0.0000 C   0  0  0  0  0  0  0  0  0  0  0  0
    2.7512    0.7634    0.0000 C   0  0  0  0  0  0  0  0  0  0  0  0
    3.4656    1.1759    0.0000 C   0  0  0  0  0  0  0  0  0  0  0  0
    4.1801    0.7634    0.0000 C   0  0  0  0  0  0  0  0  0  0  0  0
    4.1801   -0.0616    0.0000 C   0  0  0  0  0  0  0  0  0  0  0  0
    3.4656   -0.4741    0.0000 C   0  0  0  0  0  0  0  0  0  0  0  0
  1  2  1  0  0  0  0
  2  3  1  0  0  0  0
  3  4  4  0  0  0  0
  4  5  4  0  0  0  0
  5  6  1  0  0  0  0
  5  7  4  0  0  0  0
  7  8  4  0  0  0  0
  3  8  4  0  0  0  0
  7  9  1  0  0  0  0
  9 10  4  0  0  0  0
 10 11  4  0  0  0  0
 11 12  4  0  0  0  0
 12 13  4  0  0  0  0
 13 14  1  0  0  0  0
 14 15  1  0  0  0  0
 15 16  4  0  0  0  0
 16 17  4  0  0  0  0
 17 18  4  0  0  0  0
 18 19  4  0  0  0  0
 19 20  4  0  0  0  0
 15 20  4  0  0  0  0
 18 21  1  0  0  0  0
 21 22  1  0  0  0  0
 22 23  1  0  0  0  0
 23 24  1  0  0  0  0
 24 25  1  0  0  0  0
 24 26  1  0  0  0  0
 26 27  1  0  0  0  0
 21 27  1  0  0  0  0
 13 28  4  0  0  0  0
  9 28  4  0  0  0  0
  2 29  1  0  0  0  0
 29 30  4  0  0  0  0
 30 31  4  0  0  0  0
 31 32  4  0  0  0  0
 32 33  4  0  0  0  0
 33 34  4  0  0  0  0
 29 34  4  0  0  0  0
M  END
> <BindingDB_ID/CHEMBL_ID>
50501594

> <pKi>
6.0

> <Target Name>
Cyclin-A2/Cyclin-dependent kinase 2

> <Target Source Organism>
Homo sapiens

> <Target Uniprot>
P24941

> <Article DOI>
10.1021/acs.jmedchem.6b01670

$$$$

  Mrv2316 09262419122D          

 35 39  0  0  0  0            999 V2000
    0.6078   10.9527    0.0000 C   0  0  0  0  0  0  0  0  0  0  0  0
    1.3222   10.5402    0.0000 N   0  0  0  0  0  0  0  0  0  0  0  0
    2.0367   10.9527    0.0000 C   0  0  0  0  0  0  0  0  0  0  0  0
    1.3222    9.7152    0.0000 C   0  0  0  0  0  0  0  0  0  0  0  0
    2.0367    9.3027    0.0000 C   0  0  0  0  0  0  0  0  0  0  0  0
    2.0367    8.4777    0.0000 C   0  0  0  0  0  0  0  0  0  0  0  0
    1.3222    8.0652    0.0000 N   0  0  0  0  0  0  0  0  0  0  0  0
    0.6078    8.4777    0.0000 C   0  0  0  0  0  0  0  0  0  0  0  0
    0.6078    9.3027    0.0000 C   0  0  0  0  0  0  0  0  0  0  0  0
    1.3222    7.2402    0.0000 C   0  0  0  0  0  0  0  0  0  0  0  0
    2.0367    6.8277    0.0000 C   0  0  0  0  0  0  0  0  0  0  0  0
    2.0367    6.0027    0.0000 C   0  0  0  0  0  0  0  0  0  0  0  0
    1.3222    5.5902    0.0000 C   0  0  0  0  0  0  0  0  0  0  0  0
    1.3222    4.7652    0.0000 N   0  0  0  0  0  0  0  0  0  0  0  0
    2.0367    4.3527    0.0000 C   0  0  0  0  0  0  0  0  0  0  0  0
    2.7512    4.7652    0.0000 N   0  0  0  0  0  0  0  0  0  0  0  0
    3.4656    4.3527    0.0000 C   0  0  0  0  0  0  0  0  0  0  0  0
    3.4656    3.5277    0.0000 C   0  0  0  0  0  0  0  0  0  0  0  0
    4.1801    3.1152    0.0000 F   0  0  0  0  0  0  0  0  0  0  0  0
    2.7512    3.1152    0.0000 C   0  0  0  0  0  0  0  0  0  0  0  0
    2.0367    3.5277    0.0000 N   0  0  0  0  0  0  0  0  0  0  0  0
    2.7512    2.2902    0.0000 C   0  0  0  0  0  0  0  0  0  0  0  0
    3.4186    1.8053    0.0000 S   0  0  0  0  0  0  0  0  0  0  0  0
    3.1637    1.0206    0.0000 C   0  0  0  0  0  0  0  0  0  0  0  0
    3.6486    0.3532    0.0000 N   0  0  0  0  0  0  0  0  0  0  0  0
    3.3130   -0.4005    0.0000 C   0  0  0  0  0  0  0  0  0  0  0  0
    3.7255   -1.1149    0.0000 C   0  0  0  0  0  0  0  0  0  0  0  0
    3.1735   -1.7280    0.0000 C   0  0  0  0  0  0  0  0  0  0  0  0
    2.4198   -1.3925    0.0000 C   0  0  0  0  0  0  0  0  0  0  0  0
    2.5061   -0.5720    0.0000 C   0  0  0  0  0  0  0  0  0  0  0  0
    2.3387    1.0206    0.0000 N   0  0  0  0  0  0  0  0  0  0  0  0
    2.0837    1.8053    0.0000 C   0  0  0  0  0  0  0  0  0  0  0  0
    1.2991    2.0602    0.0000 C   0  0  0  0  0  0  0  0  0  0  0  0
    0.6078    6.0027    0.0000 N   0  0  0  0  0  0  0  0  0  0  0  0
    0.6078    6.8277    0.0000 C   0  0  0  0  0  0  0  0  0  0  0  0
  1  2  1  0  0  0  0
  2  3  1  0  0  0  0
  2  4  1  0  0  0  0
  4  5  1  0  0  0  0
  5  6  1  0  0  0  0
  6  7  1  0  0  0  0
  7  8  1  0  0  0  0
  8  9  1  0  0  0  0
  4  9  1  0  0  0  0
  7 10  1  0  0  0  0
 10 11  4  0  0  0  0
 11 12  4  0  0  0  0
 12 13  4  0  0  0  0
 13 14  1  0  0  0  0
 14 15  1  0  0  0  0
 15 16  4  0  0  0  0
 16 17  4  0  0  0  0
 17 18  4  0  0  0  0
 18 19  1  0  0  0  0
 18 20  4  0  0  0  0
 20 21  4  0  0  0  0
 15 21  4  0  0  0  0
 20 22  1  0  0  0  0
 22 23  4  0  0  0  0
 23 24  4  0  0  0  0
 24 25  1  0  0  0  0
 25 26  1  0  0  0  0
 26 27  1  0  0  0  0
 27 28  1  0  0  0  0
 28 29  1  0  0  0  0
 29 30  1  0  0  0  0
 26 30  1  0  0  0  0
 24 31  4  0  0  0  0
 31 32  4  0  0  0  0
 22 32  4  0  0  0  0
 32 33  1  0  0  0  0
 13 34  4  0  0  0  0
 34 35  4  0  0  0  0
 10 35  4  0  0  0  0
M  END
> <BindingDB_ID/CHEMBL_ID>
50501595

> <pKi>
5.9

> <Target Name>
Cyclin-A2/Cyclin-dependent kinase 2

> <Target Source Organism>
Homo sapiens

> <Target Uniprot>
P24941

> <Article DOI>
10.1021/acs.jmedchem.6b01670

$$$$

  Mrv2316 09262419122D          

 36 40  0  0  0  0            999 V2000
    2.1434   -5.3625    0.0000 C   0  0  0  0  0  0  0  0  0  0  0  0
    2.1434   -6.1875    0.0000 C   0  0  0  0  0  0  0  0  0  0  0  0
    2.8109   -6.6724    0.0000 N   0  0  0  0  0  0  0  0  0  0  0  0
    2.5559   -7.4570    0.0000 C   0  0  0  0  0  0  0  0  0  0  0  0
    3.0408   -8.1245    0.0000 N   0  0  0  0  0  0  0  0  0  0  0  0
    3.8613   -8.0382    0.0000 C   0  0  0  0  0  0  0  0  0  0  0  0
    4.2738   -7.3238    0.0000 C   0  0  0  0  0  0  0  0  0  0  0  0
    5.0808   -7.4953    0.0000 C   0  0  0  0  0  0  0  0  0  0  0  0
    5.1670   -8.3158    0.0000 C   0  0  0  0  0  0  0  0  0  0  0  0
    4.4133   -8.6513    0.0000 C   0  0  0  0  0  0  0  0  0  0  0  0
    1.7309   -7.4570    0.0000 S   0  0  0  0  0  0  0  0  0  0  0  0
    1.4760   -6.6724    0.0000 C   0  0  0  0  0  0  0  0  0  0  0  0
    0.6914   -6.4175    0.0000 C   0  0  0  0  0  0  0  0  0  0  0  0
    0.0783   -6.9695    0.0000 N   0  0  0  0  0  0  0  0  0  0  0  0
   -0.7064   -6.7146    0.0000 C   0  0  0  0  0  0  0  0  0  0  0  0
   -1.3195   -7.2666    0.0000 N   0  0  0  0  0  0  0  0  0  0  0  0
   -2.1041   -7.0117    0.0000 C   0  0  0  0  0  0  0  0  0  0  0  0
   -2.7172   -7.5637    0.0000 C   0  0  0  0  0  0  0  0  0  0  0  0
   -3.5018   -7.3088    0.0000 C   0  0  0  0  0  0  0  0  0  0  0  0
   -3.6733   -6.5018    0.0000 C   0  0  0  0  0  0  0  0  0  0  0  0
   -3.0602   -5.9498    0.0000 C   0  0  0  0  0  0  0  0  0  0  0  0
   -2.2756   -6.2047    0.0000 N   0  0  0  0  0  0  0  0  0  0  0  0
   -4.4579   -6.2469    0.0000 N   0  0  0  0  0  0  0  0  0  0  0  0
   -5.0710   -6.7989    0.0000 C   0  0  0  0  0  0  0  0  0  0  0  0
   -5.8557   -6.5439    0.0000 C   0  0  0  0  0  0  0  0  0  0  0  0
   -6.0272   -5.7370    0.0000 N   0  0  0  0  0  0  0  0  0  0  0  0
   -5.4141   -5.1849    0.0000 C   0  0  0  0  0  0  0  0  0  0  0  0
   -4.6295   -5.4399    0.0000 C   0  0  0  0  0  0  0  0  0  0  0  0
   -6.8118   -5.4820    0.0000 S   0  0  0  0  0  0  0  0  0  0  0  0
   -7.5964   -5.2271    0.0000 C   0  0  0  0  0  0  0  0  0  0  0  0
   -6.5569   -4.6974    0.0000 O   0  0  0  0  0  0  0  0  0  0  0  0
   -7.0667   -6.2667    0.0000 O   0  0  0  0  0  0  0  0  0  0  0  0
   -0.8779   -5.9076    0.0000 N   0  0  0  0  0  0  0  0  0  0  0  0
   -0.2648   -5.3556    0.0000 C   0  0  0  0  0  0  0  0  0  0  0  0
    0.5198   -5.6105    0.0000 C   0  0  0  0  0  0  0  0  0  0  0  0
    1.1329   -5.0585    0.0000 F   0  0  0  0  0  0  0  0  0  0  0  0
  1  2  1  0  0  0  0
  2  3  4  0  0  0  0
  3  4  4  0  0  0  0
  4  5  1  0  0  0  0
  5  6  1  0  0  0  0
  6  7  1  0  0  0  0
  7  8  1  0  0  0  0
  8  9  1  0  0  0  0
  9 10  1  0  0  0  0
  6 10  1  0  0  0  0
  4 11  4  0  0  0  0
 11 12  4  0  0  0  0
  2 12  4  0  0  0  0
 12 13  1  0  0  0  0
 13 14  4  0  0  0  0
 14 15  4  0  0  0  0
 15 16  1  0  0  0  0
 16 17  1  0  0  0  0
 17 18  4  0  0  0  0
 18 19  4  0  0  0  0
 19 20  4  0  0  0  0
 20 21  4  0  0  0  0
 21 22  4  0  0  0  0
 17 22  4  0  0  0  0
 20 23  1  0  0  0  0
 23 24  1  0  0  0  0
 24 25  1  0  0  0  0
 25 26  1  0  0  0  0
 26 27  1  0  0  0  0
 27 28  1  0  0  0  0
 23 28  1  0  0  0  0
 26 29  1  0  0  0  0
 29 30  1  0  0  0  0
 29 31  2  0  0  0  0
 29 32  2  0  0  0  0
 15 33  4  0  0  0  0
 33 34  4  0  0  0  0
 34 35  4  0  0  0  0
 13 35  4  0  0  0  0
 35 36  1  0  0  0  0
M  END
> <BindingDB_ID/CHEMBL_ID>
50501596

> <pKi>
6.5

> <Target Name>
Cyclin-A2/Cyclin-dependent kinase 2

> <Target Source Organism>
Homo sapiens

> <Target Uniprot>
P24941

> <Article DOI>
10.1021/acs.jmedchem.6b01670

$$$$

  Mrv2316 09262419122D          

 35 39  0  0  0  0            999 V2000
   -2.2501    9.3027    0.0000 C   0  0  0  0  0  0  0  0  0  0  0  0
   -1.5356    9.7152    0.0000 C   0  0  0  0  0  0  0  0  0  0  0  0
   -0.8212    9.3027    0.0000 N   0  0  0  0  0  0  0  0  0  0  0  0
   -0.1067    9.7152    0.0000 C   0  0  0  0  0  0  0  0  0  0  0  0
    0.6078    9.3027    0.0000 C   0  0  0  0  0  0  0  0  0  0  0  0
    0.6078    8.4777    0.0000 N   0  0  0  0  0  0  0  0  0  0  0  0
    1.3222    8.0652    0.0000 C   0  0  0  0  0  0  0  0  0  0  0  0
    1.3222    7.2402    0.0000 C   0  0  0  0  0  0  0  0  0  0  0  0
    2.0367    6.8277    0.0000 C   0  0  0  0  0  0  0  0  0  0  0  0
    2.0367    6.0027    0.0000 C   0  0  0  0  0  0  0  0  0  0  0  0
    1.3222    5.5902    0.0000 C   0  0  0  0  0  0  0  0  0  0  0  0
    1.3222    4.7652    0.0000 N   0  0  0  0  0  0  0  0  0  0  0  0
    2.0367    4.3527    0.0000 C   0  0  0  0  0  0  0  0  0  0  0  0
    2.7512    4.7652    0.0000 N   0  0  0  0  0  0  0  0  0  0  0  0
    3.4656    4.3527    0.0000 C   0  0  0  0  0  0  0  0  0  0  0  0
    3.4656    3.5277    0.0000 C   0  0  0  0  0  0  0  0  0  0  0  0
    4.1801    3.1152    0.0000 F   0  0  0  0  0  0  0  0  0  0  0  0
    2.7512    3.1152    0.0000 C   0  0  0  0  0  0  0  0  0  0  0  0
    2.0367    3.5277    0.0000 N   0  0  0  0  0  0  0  0  0  0  0  0
    2.7512    2.2902    0.0000 C   0  0  0  0  0  0  0  0  0  0  0  0
    3.4186    1.8053    0.0000 S   0  0  0  0  0  0  0  0  0  0  0  0
    3.1637    1.0206    0.0000 C   0  0  0  0  0  0  0  0  0  0  0  0
    3.6486    0.3532    0.0000 N   0  0  0  0  0  0  0  0  0  0  0  0
    3.3130   -0.4005    0.0000 C   0  0  0  0  0  0  0  0  0  0  0  0
    3.7255   -1.1149    0.0000 C   0  0  0  0  0  0  0  0  0  0  0  0
    3.1735   -1.7280    0.0000 C   0  0  0  0  0  0  0  0  0  0  0  0
    2.4198   -1.3925    0.0000 C   0  0  0  0  0  0  0  0  0  0  0  0
    2.5061   -0.5720    0.0000 C   0  0  0  0  0  0  0  0  0  0  0  0
    2.3387    1.0206    0.0000 N   0  0  0  0  0  0  0  0  0  0  0  0
    2.0837    1.8053    0.0000 C   0  0  0  0  0  0  0  0  0  0  0  0
    1.2991    2.0602    0.0000 C   0  0  0  0  0  0  0  0  0  0  0  0
    0.6078    6.0027    0.0000 N   0  0  0  0  0  0  0  0  0  0  0  0
    0.6078    6.8277    0.0000 C   0  0  0  0  0  0  0  0  0  0  0  0
   -0.1067    8.0652    0.0000 C   0  0  0  0  0  0  0  0  0  0  0  0
   -0.8212    8.4777    0.0000 C   0  0  0  0  0  0  0  0  0  0  0  0
  1  2  1  0  0  0  0
  2  3  1  0  0  0  0
  3  4  1  0  0  0  0
  4  5  1  0  0  0  0
  5  6  1  0  0  0  0
  6  7  1  0  0  0  0
  7  8  1  0  0  0  0
  8  9  4  0  0  0  0
  9 10  4  0  0  0  0
 10 11  4  0  0  0  0
 11 12  1  0  0  0  0
 12 13  1  0  0  0  0
 13 14  4  0  0  0  0
 14 15  4  0  0  0  0
 15 16  4  0  0  0  0
 16 17  1  0  0  0  0
 16 18  4  0  0  0  0
 18 19  4  0  0  0  0
 13 19  4  0  0  0  0
 18 20  1  0  0  0  0
 20 21  4  0  0  0  0
 21 22  4  0  0  0  0
 22 23  1  0  0  0  0
 23 24  1  0  0  0  0
 24 25  1  0  0  0  0
 25 26  1  0  0  0  0
 26 27  1  0  0  0  0
 27 28  1  0  0  0  0
 24 28  1  0  0  0  0
 22 29  4  0  0  0  0
 29 30  4  0  0  0  0
 20 30  4  0  0  0  0
 30 31  1  0  0  0  0
 11 32  4  0  0  0  0
 32 33  4  0  0  0  0
  8 33  4  0  0  0  0
  6 34  1  0  0  0  0
 34 35  1  0  0  0  0
  3 35  1  0  0  0  0
M  END
> <BindingDB_ID/CHEMBL_ID>
50501597

> <pKi>
6.2

> <Target Name>
Cyclin-A2/Cyclin-dependent kinase 2

> <Target Source Organism>
Homo sapiens

> <Target Uniprot>
P24941

> <Article DOI>
10.1021/acs.jmedchem.6b01670

$$$$

  Mrv2316 09262419122D          

 34 38  0  0  0  0            999 V2000
   -2.2501    9.3027    0.0000 C   0  0  0  0  0  0  0  0  0  0  0  0
   -1.5356    9.7152    0.0000 C   0  0  0  0  0  0  0  0  0  0  0  0
   -0.8212    9.3027    0.0000 N   0  0  0  0  0  0  0  0  0  0  0  0
   -0.1067    9.7152    0.0000 C   0  0  0  0  0  0  0  0  0  0  0  0
    0.6078    9.3027    0.0000 C   0  0  0  0  0  0  0  0  0  0  0  0
    0.6078    8.4777    0.0000 N   0  0  0  0  0  0  0  0  0  0  0  0
    1.3222    8.0652    0.0000 C   0  0  0  0  0  0  0  0  0  0  0  0
    1.3222    7.2402    0.0000 C   0  0  0  0  0  0  0  0  0  0  0  0
    2.0367    6.8277    0.0000 C   0  0  0  0  0  0  0  0  0  0  0  0
    2.0367    6.0027    0.0000 C   0  0  0  0  0  0  0  0  0  0  0  0
    1.3222    5.5902    0.0000 C   0  0  0  0  0  0  0  0  0  0  0  0
    1.3222    4.7652    0.0000 N   0  0  0  0  0  0  0  0  0  0  0  0
    2.0367    4.3527    0.0000 C   0  0  0  0  0  0  0  0  0  0  0  0
    2.7512    4.7652    0.0000 N   0  0  0  0  0  0  0  0  0  0  0  0
    3.4656    4.3527    0.0000 C   0  0  0  0  0  0  0  0  0  0  0  0
    3.4656    3.5277    0.0000 C   0  0  0  0  0  0  0  0  0  0  0  0
    2.7512    3.1152    0.0000 C   0  0  0  0  0  0  0  0  0  0  0  0
    2.0367    3.5277    0.0000 N   0  0  0  0  0  0  0  0  0  0  0  0
    2.7512    2.2902    0.0000 C   0  0  0  0  0  0  0  0  0  0  0  0
    3.4186    1.8053    0.0000 S   0  0  0  0  0  0  0  0  0  0  0  0
    3.1637    1.0206    0.0000 C   0  0  0  0  0  0  0  0  0  0  0  0
    3.6486    0.3532    0.0000 N   0  0  0  0  0  0  0  0  0  0  0  0
    3.3130   -0.4005    0.0000 C   0  0  0  0  0  0  0  0  0  0  0  0
    3.7255   -1.1149    0.0000 C   0  0  0  0  0  0  0  0  0  0  0  0
    3.1735   -1.7280    0.0000 C   0  0  0  0  0  0  0  0  0  0  0  0
    2.4198   -1.3925    0.0000 C   0  0  0  0  0  0  0  0  0  0  0  0
    2.5061   -0.5720    0.0000 C   0  0  0  0  0  0  0  0  0  0  0  0
    2.3387    1.0206    0.0000 N   0  0  0  0  0  0  0  0  0  0  0  0
    2.0837    1.8053    0.0000 C   0  0  0  0  0  0  0  0  0  0  0  0
    1.2991    2.0602    0.0000 C   0  0  0  0  0  0  0  0  0  0  0  0
    0.6078    6.0027    0.0000 N   0  0  0  0  0  0  0  0  0  0  0  0
    0.6078    6.8277    0.0000 C   0  0  0  0  0  0  0  0  0  0  0  0
   -0.1067    8.0652    0.0000 C   0  0  0  0  0  0  0  0  0  0  0  0
   -0.8212    8.4777    0.0000 C   0  0  0  0  0  0  0  0  0  0  0  0
  1  2  1  0  0  0  0
  2  3  1  0  0  0  0
  3  4  1  0  0  0  0
  4  5  1  0  0  0  0
  5  6  1  0  0  0  0
  6  7  1  0  0  0  0
  7  8  1  0  0  0  0
  8  9  4  0  0  0  0
  9 10  4  0  0  0  0
 10 11  4  0  0  0  0
 11 12  1  0  0  0  0
 12 13  1  0  0  0  0
 13 14  4  0  0  0  0
 14 15  4  0  0  0  0
 15 16  4  0  0  0  0
 16 17  4  0  0  0  0
 17 18  4  0  0  0  0
 13 18  4  0  0  0  0
 17 19  1  0  0  0  0
 19 20  4  0  0  0  0
 20 21  4  0  0  0  0
 21 22  1  0  0  0  0
 22 23  1  0  0  0  0
 23 24  1  0  0  0  0
 24 25  1  0  0  0  0
 25 26  1  0  0  0  0
 26 27  1  0  0  0  0
 23 27  1  0  0  0  0
 21 28  4  0  0  0  0
 28 29  4  0  0  0  0
 19 29  4  0  0  0  0
 29 30  1  0  0  0  0
 11 31  4  0  0  0  0
 31 32  4  0  0  0  0
  8 32  4  0  0  0  0
  6 33  1  0  0  0  0
 33 34  1  0  0  0  0
  3 34  1  0  0  0  0
M  END
> <BindingDB_ID/CHEMBL_ID>
50501598

> <pKi>
6.4

> <Target Name>
Cyclin-A2/Cyclin-dependent kinase 2

> <Target Source Organism>
Homo sapiens

> <Target Uniprot>
P24941

> <Article DOI>
10.1021/acs.jmedchem.6b01670

$$$$

  Mrv2316 09262419122D          

 36 40  0  0  0  0            999 V2000
    4.1801   -1.0098    0.0000 F   0  0  0  0  0  0  0  0  0  0  0  0
    4.1801   -1.8348    0.0000 C   0  0  0  0  0  0  0  0  0  0  0  0
    3.3551   -1.8348    0.0000 F   0  0  0  0  0  0  0  0  0  0  0  0
    5.0051   -1.8348    0.0000 F   0  0  0  0  0  0  0  0  0  0  0  0
    4.1801   -2.6598    0.0000 C   0  0  0  0  0  0  0  0  0  0  0  0
    4.8476   -3.1447    0.0000 N   0  0  0  0  0  0  0  0  0  0  0  0
    4.5926   -3.9294    0.0000 C   0  0  0  0  0  0  0  0  0  0  0  0
    5.0775   -4.5968    0.0000 N   0  0  0  0  0  0  0  0  0  0  0  0
    5.8980   -4.5106    0.0000 C   0  0  0  0  0  0  0  0  0  0  0  0
    6.3105   -3.7961    0.0000 C   0  0  0  0  0  0  0  0  0  0  0  0
    7.1175   -3.9676    0.0000 C   0  0  0  0  0  0  0  0  0  0  0  0
    7.2037   -4.7881    0.0000 C   0  0  0  0  0  0  0  0  0  0  0  0
    6.4501   -5.1237    0.0000 C   0  0  0  0  0  0  0  0  0  0  0  0
    3.7676   -3.9294    0.0000 S   0  0  0  0  0  0  0  0  0  0  0  0
    3.5127   -3.1447    0.0000 C   0  0  0  0  0  0  0  0  0  0  0  0
    2.7281   -2.8898    0.0000 C   0  0  0  0  0  0  0  0  0  0  0  0
    2.1150   -3.4418    0.0000 C   0  0  0  0  0  0  0  0  0  0  0  0
    1.3303   -3.1869    0.0000 C   0  0  0  0  0  0  0  0  0  0  0  0
    1.1588   -2.3799    0.0000 N   0  0  0  0  0  0  0  0  0  0  0  0
    1.7719   -1.8279    0.0000 C   0  0  0  0  0  0  0  0  0  0  0  0
    1.6004   -1.0209    0.0000 N   0  0  0  0  0  0  0  0  0  0  0  0
    2.2135   -0.4689    0.0000 C   0  0  0  0  0  0  0  0  0  0  0  0
    2.0420    0.3381    0.0000 C   0  0  0  0  0  0  0  0  0  0  0  0
    2.6550    0.8901    0.0000 C   0  0  0  0  0  0  0  0  0  0  0  0
    3.4397    0.6352    0.0000 C   0  0  0  0  0  0  0  0  0  0  0  0
    3.6112   -0.1718    0.0000 C   0  0  0  0  0  0  0  0  0  0  0  0
    2.9981   -0.7238    0.0000 N   0  0  0  0  0  0  0  0  0  0  0  0
    4.0528    1.1872    0.0000 N   0  0  0  0  0  0  0  0  0  0  0  0
    3.8812    1.9942    0.0000 C   0  0  0  0  0  0  0  0  0  0  0  0
    4.4943    2.5462    0.0000 C   0  0  0  0  0  0  0  0  0  0  0  0
    5.2790    2.2913    0.0000 N   0  0  0  0  0  0  0  0  0  0  0  0
    5.4505    1.4843    0.0000 C   0  0  0  0  0  0  0  0  0  0  0  0
    4.8374    0.9323    0.0000 C   0  0  0  0  0  0  0  0  0  0  0  0
    5.8920    2.8433    0.0000 C   0  0  0  0  0  0  0  0  0  0  0  0
    5.7205    3.6503    0.0000 O   0  0  0  0  0  0  0  0  0  0  0  0
    2.5565   -2.0828    0.0000 N   0  0  0  0  0  0  0  0  0  0  0  0
  1  2  1  0  0  0  0
  2  3  1  0  0  0  0
  2  4  1  0  0  0  0
  2  5  1  0  0  0  0
  5  6  4  0  0  0  0
  6  7  4  0  0  0  0
  7  8  1  0  0  0  0
  8  9  1  0  0  0  0
  9 10  1  0  0  0  0
 10 11  1  0  0  0  0
 11 12  1  0  0  0  0
 12 13  1  0  0  0  0
  9 13  1  0  0  0  0
  7 14  4  0  0  0  0
 14 15  4  0  0  0  0
  5 15  4  0  0  0  0
 15 16  1  0  0  0  0
 16 17  4  0  0  0  0
 17 18  4  0  0  0  0
 18 19  4  0  0  0  0
 19 20  4  0  0  0  0
 20 21  1  0  0  0  0
 21 22  1  0  0  0  0
 22 23  4  0  0  0  0
 23 24  4  0  0  0  0
 24 25  4  0  0  0  0
 25 26  4  0  0  0  0
 26 27  4  0  0  0  0
 22 27  4  0  0  0  0
 25 28  1  0  0  0  0
 28 29  1  0  0  0  0
 29 30  1  0  0  0  0
 30 31  1  0  0  0  0
 31 32  1  0  0  0  0
 32 33  1  0  0  0  0
 28 33  1  0  0  0  0
 31 34  1  0  0  0  0
 34 35  2  0  0  0  0
 20 36  4  0  0  0  0
 16 36  4  0  0  0  0
M  END
> <BindingDB_ID/CHEMBL_ID>
50501599

> <pKi>
7.8

> <Target Name>
Cyclin-A2/Cyclin-dependent kinase 2

> <Target Source Organism>
Homo sapiens

> <Target Uniprot>
P24941

> <Article DOI>
10.1021/acs.jmedchem.6b01670

$$$$

  Mrv2316 09262419122D          

 35 39  0  0  0  0            999 V2000
    7.0340    0.1321    0.0000 C   0  0  0  0  0  0  0  0  0  0  0  0
    6.3195   -0.2804    0.0000 N   0  0  0  0  0  0  0  0  0  0  0  0
    6.3195   -1.1054    0.0000 C   0  0  0  0  0  0  0  0  0  0  0  0
    6.9870   -1.5904    0.0000 C   0  0  0  0  0  0  0  0  0  0  0  0
    6.7320   -2.3750    0.0000 C   0  0  0  0  0  0  0  0  0  0  0  0
    5.9070   -2.3750    0.0000 C   0  0  0  0  0  0  0  0  0  0  0  0
    5.6521   -1.5904    0.0000 C   0  0  0  0  0  0  0  0  0  0  0  0
    5.6051    0.1321    0.0000 C   0  0  0  0  0  0  0  0  0  0  0  0
    4.8514   -0.2035    0.0000 N   0  0  0  0  0  0  0  0  0  0  0  0
    4.2994    0.4096    0.0000 C   0  0  0  0  0  0  0  0  0  0  0  0
    3.4789    0.3234    0.0000 C   0  0  0  0  0  0  0  0  0  0  0  0
    4.7119    1.1241    0.0000 C   0  0  0  0  0  0  0  0  0  0  0  0
    5.5188    0.9525    0.0000 S   0  0  0  0  0  0  0  0  0  0  0  0
    4.3763    1.8777    0.0000 C   0  0  0  0  0  0  0  0  0  0  0  0
    3.5558    1.9640    0.0000 C   0  0  0  0  0  0  0  0  0  0  0  0
    3.2203    2.7177    0.0000 C   0  0  0  0  0  0  0  0  0  0  0  0
    3.7052    3.3851    0.0000 N   0  0  0  0  0  0  0  0  0  0  0  0
    4.5257    3.2989    0.0000 C   0  0  0  0  0  0  0  0  0  0  0  0
    5.0106    3.9663    0.0000 N   0  0  0  0  0  0  0  0  0  0  0  0
    5.8311    3.8801    0.0000 C   0  0  0  0  0  0  0  0  0  0  0  0
    6.3160    4.5475    0.0000 C   0  0  0  0  0  0  0  0  0  0  0  0
    7.1365    4.4613    0.0000 C   0  0  0  0  0  0  0  0  0  0  0  0
    7.4720    3.7076    0.0000 C   0  0  0  0  0  0  0  0  0  0  0  0
    6.9871    3.0402    0.0000 C   0  0  0  0  0  0  0  0  0  0  0  0
    6.1666    3.1264    0.0000 N   0  0  0  0  0  0  0  0  0  0  0  0
    8.2925    3.6214    0.0000 N   0  0  0  0  0  0  0  0  0  0  0  0
    8.7774    4.2888    0.0000 C   0  0  0  0  0  0  0  0  0  0  0  0
    9.5979    4.2026    0.0000 C   0  0  0  0  0  0  0  0  0  0  0  0
    9.9335    3.4489    0.0000 N   0  0  0  0  0  0  0  0  0  0  0  0
    9.4486    2.7814    0.0000 C   0  0  0  0  0  0  0  0  0  0  0  0
    8.6281    2.8677    0.0000 C   0  0  0  0  0  0  0  0  0  0  0  0
   10.7540    3.3626    0.0000 C   0  0  0  0  0  0  0  0  0  0  0  0
   11.2389    4.0301    0.0000 C   0  0  0  0  0  0  0  0  0  0  0  0
   11.0895    2.6090    0.0000 O   0  0  0  0  0  0  0  0  0  0  0  0
    4.8612    2.5452    0.0000 N   0  0  0  0  0  0  0  0  0  0  0  0
  1  2  1  0  0  0  0
  2  3  1  0  0  0  0
  3  4  1  0  0  0  0
  4  5  1  0  0  0  0
  5  6  1  0  0  0  0
  6  7  1  0  0  0  0
  3  7  1  0  0  0  0
  2  8  1  0  0  0  0
  8  9  4  0  0  0  0
  9 10  4  0  0  0  0
 10 11  1  0  0  0  0
 10 12  4  0  0  0  0
 12 13  4  0  0  0  0
  8 13  4  0  0  0  0
 12 14  1  0  0  0  0
 14 15  4  0  0  0  0
 15 16  4  0  0  0  0
 16 17  4  0  0  0  0
 17 18  4  0  0  0  0
 18 19  1  0  0  0  0
 19 20  1  0  0  0  0
 20 21  4  0  0  0  0
 21 22  4  0  0  0  0
 22 23  4  0  0  0  0
 23 24  4  0  0  0  0
 24 25  4  0  0  0  0
 20 25  4  0  0  0  0
 23 26  1  0  0  0  0
 26 27  1  0  0  0  0
 27 28  1  0  0  0  0
 28 29  1  0  0  0  0
 29 30  1  0  0  0  0
 30 31  1  0  0  0  0
 26 31  1  0  0  0  0
 29 32  1  0  0  0  0
 32 33  1  0  0  0  0
 32 34  2  0  0  0  0
 18 35  4  0  0  0  0
 14 35  4  0  0  0  0
M  END
> <BindingDB_ID/CHEMBL_ID>
50501603

> <pKi>
6.9

> <Target Name>
Cyclin-A2/Cyclin-dependent kinase 2

> <Target Source Organism>
Homo sapiens

> <Target Uniprot>
P24941

> <Article DOI>
10.1021/acs.jmedchem.6b01670

$$$$

  Mrv2316 09262419122D          

 33 37  0  0  0  0            999 V2000
    7.0340    0.1321    0.0000 C   0  0  0  0  0  0  0  0  0  0  0  0
    6.3195   -0.2804    0.0000 N   0  0  0  0  0  0  0  0  0  0  0  0
    6.3195   -1.1054    0.0000 C   0  0  0  0  0  0  0  0  0  0  0  0
    6.9870   -1.5904    0.0000 C   0  0  0  0  0  0  0  0  0  0  0  0
    6.7320   -2.3750    0.0000 C   0  0  0  0  0  0  0  0  0  0  0  0
    5.9070   -2.3750    0.0000 C   0  0  0  0  0  0  0  0  0  0  0  0
    5.6521   -1.5904    0.0000 C   0  0  0  0  0  0  0  0  0  0  0  0
    5.6051    0.1321    0.0000 C   0  0  0  0  0  0  0  0  0  0  0  0
    4.8514   -0.2035    0.0000 N   0  0  0  0  0  0  0  0  0  0  0  0
    4.2994    0.4096    0.0000 C   0  0  0  0  0  0  0  0  0  0  0  0
    3.4789    0.3234    0.0000 C   0  0  0  0  0  0  0  0  0  0  0  0
    4.7119    1.1241    0.0000 C   0  0  0  0  0  0  0  0  0  0  0  0
    5.5188    0.9525    0.0000 S   0  0  0  0  0  0  0  0  0  0  0  0
    4.3763    1.8777    0.0000 C   0  0  0  0  0  0  0  0  0  0  0  0
    3.5558    1.9640    0.0000 C   0  0  0  0  0  0  0  0  0  0  0  0
    3.2203    2.7177    0.0000 C   0  0  0  0  0  0  0  0  0  0  0  0
    3.7052    3.3851    0.0000 N   0  0  0  0  0  0  0  0  0  0  0  0
    4.5257    3.2989    0.0000 C   0  0  0  0  0  0  0  0  0  0  0  0
    5.0106    3.9663    0.0000 N   0  0  0  0  0  0  0  0  0  0  0  0
    5.8311    3.8801    0.0000 C   0  0  0  0  0  0  0  0  0  0  0  0
    6.3160    4.5475    0.0000 C   0  0  0  0  0  0  0  0  0  0  0  0
    7.1365    4.4613    0.0000 C   0  0  0  0  0  0  0  0  0  0  0  0
    7.4720    3.7076    0.0000 C   0  0  0  0  0  0  0  0  0  0  0  0
    6.9871    3.0402    0.0000 C   0  0  0  0  0  0  0  0  0  0  0  0
    6.1666    3.1264    0.0000 N   0  0  0  0  0  0  0  0  0  0  0  0
    8.2925    3.6214    0.0000 N   0  0  0  0  0  0  0  0  0  0  0  0
    8.7774    4.2888    0.0000 C   0  0  0  0  0  0  0  0  0  0  0  0
    9.5979    4.2026    0.0000 C   0  0  0  0  0  0  0  0  0  0  0  0
    9.9335    3.4489    0.0000 N   0  0  0  0  0  0  0  0  0  0  0  0
   10.7540    3.3626    0.0000 C   0  0  0  0  0  0  0  0  0  0  0  0
    9.4486    2.7814    0.0000 C   0  0  0  0  0  0  0  0  0  0  0  0
    8.6281    2.8677    0.0000 C   0  0  0  0  0  0  0  0  0  0  0  0
    4.8612    2.5452    0.0000 N   0  0  0  0  0  0  0  0  0  0  0  0
  1  2  1  0  0  0  0
  2  3  1  0  0  0  0
  3  4  1  0  0  0  0
  4  5  1  0  0  0  0
  5  6  1  0  0  0  0
  6  7  1  0  0  0  0
  3  7  1  0  0  0  0
  2  8  1  0  0  0  0
  8  9  4  0  0  0  0
  9 10  4  0  0  0  0
 10 11  1  0  0  0  0
 10 12  4  0  0  0  0
 12 13  4  0  0  0  0
  8 13  4  0  0  0  0
 12 14  1  0  0  0  0
 14 15  4  0  0  0  0
 15 16  4  0  0  0  0
 16 17  4  0  0  0  0
 17 18  4  0  0  0  0
 18 19  1  0  0  0  0
 19 20  1  0  0  0  0
 20 21  4  0  0  0  0
 21 22  4  0  0  0  0
 22 23  4  0  0  0  0
 23 24  4  0  0  0  0
 24 25  4  0  0  0  0
 20 25  4  0  0  0  0
 23 26  1  0  0  0  0
 26 27  1  0  0  0  0
 27 28  1  0  0  0  0
 28 29  1  0  0  0  0
 29 30  1  0  0  0  0
 29 31  1  0  0  0  0
 31 32  1  0  0  0  0
 26 32  1  0  0  0  0
 18 33  4  0  0  0  0
 14 33  4  0  0  0  0
M  END
> <BindingDB_ID/CHEMBL_ID>
50501604

> <pKi>
6.3

> <Target Name>
Cyclin-A2/Cyclin-dependent kinase 2

> <Target Source Organism>
Homo sapiens

> <Target Uniprot>
P24941

> <Article DOI>
10.1021/acs.jmedchem.6b01670

$$$$

  Mrv2316 09262419122D          

 32 36  0  0  0  0            999 V2000
    7.0340    0.1321    0.0000 C   0  0  0  0  0  0  0  0  0  0  0  0
    6.3195   -0.2804    0.0000 N   0  0  0  0  0  0  0  0  0  0  0  0
    6.3195   -1.1054    0.0000 C   0  0  0  0  0  0  0  0  0  0  0  0
    6.9870   -1.5904    0.0000 C   0  0  0  0  0  0  0  0  0  0  0  0
    6.7320   -2.3750    0.0000 C   0  0  0  0  0  0  0  0  0  0  0  0
    5.9070   -2.3750    0.0000 C   0  0  0  0  0  0  0  0  0  0  0  0
    5.6521   -1.5904    0.0000 C   0  0  0  0  0  0  0  0  0  0  0  0
    5.6051    0.1321    0.0000 C   0  0  0  0  0  0  0  0  0  0  0  0
    4.8514   -0.2035    0.0000 N   0  0  0  0  0  0  0  0  0  0  0  0
    4.2994    0.4096    0.0000 C   0  0  0  0  0  0  0  0  0  0  0  0
    3.4789    0.3234    0.0000 C   0  0  0  0  0  0  0  0  0  0  0  0
    4.7119    1.1241    0.0000 C   0  0  0  0  0  0  0  0  0  0  0  0
    5.5188    0.9525    0.0000 S   0  0  0  0  0  0  0  0  0  0  0  0
    4.3763    1.8777    0.0000 C   0  0  0  0  0  0  0  0  0  0  0  0
    3.5558    1.9640    0.0000 C   0  0  0  0  0  0  0  0  0  0  0  0
    3.2203    2.7177    0.0000 C   0  0  0  0  0  0  0  0  0  0  0  0
    3.7052    3.3851    0.0000 N   0  0  0  0  0  0  0  0  0  0  0  0
    4.5257    3.2989    0.0000 C   0  0  0  0  0  0  0  0  0  0  0  0
    5.0106    3.9663    0.0000 N   0  0  0  0  0  0  0  0  0  0  0  0
    5.8311    3.8801    0.0000 C   0  0  0  0  0  0  0  0  0  0  0  0
    6.3160    4.5475    0.0000 C   0  0  0  0  0  0  0  0  0  0  0  0
    7.1365    4.4613    0.0000 C   0  0  0  0  0  0  0  0  0  0  0  0
    7.4720    3.7076    0.0000 C   0  0  0  0  0  0  0  0  0  0  0  0
    6.9871    3.0402    0.0000 C   0  0  0  0  0  0  0  0  0  0  0  0
    6.1666    3.1264    0.0000 N   0  0  0  0  0  0  0  0  0  0  0  0
    8.2925    3.6214    0.0000 N   0  0  0  0  0  0  0  0  0  0  0  0
    8.7774    4.2888    0.0000 C   0  0  0  0  0  0  0  0  0  0  0  0
    9.5979    4.2026    0.0000 C   0  0  0  0  0  0  0  0  0  0  0  0
    9.9335    3.4489    0.0000 N   0  0  0  0  0  0  0  0  0  0  0  0
    9.4486    2.7814    0.0000 C   0  0  0  0  0  0  0  0  0  0  0  0
    8.6281    2.8677    0.0000 C   0  0  0  0  0  0  0  0  0  0  0  0
    4.8612    2.5452    0.0000 N   0  0  0  0  0  0  0  0  0  0  0  0
  1  2  1  0  0  0  0
  2  3  1  0  0  0  0
  3  4  1  0  0  0  0
  4  5  1  0  0  0  0
  5  6  1  0  0  0  0
  6  7  1  0  0  0  0
  3  7  1  0  0  0  0
  2  8  1  0  0  0  0
  8  9  4  0  0  0  0
  9 10  4  0  0  0  0
 10 11  1  0  0  0  0
 10 12  4  0  0  0  0
 12 13  4  0  0  0  0
  8 13  4  0  0  0  0
 12 14  1  0  0  0  0
 14 15  4  0  0  0  0
 15 16  4  0  0  0  0
 16 17  4  0  0  0  0
 17 18  4  0  0  0  0
 18 19  1  0  0  0  0
 19 20  1  0  0  0  0
 20 21  4  0  0  0  0
 21 22  4  0  0  0  0
 22 23  4  0  0  0  0
 23 24  4  0  0  0  0
 24 25  4  0  0  0  0
 20 25  4  0  0  0  0
 23 26  1  0  0  0  0
 26 27  1  0  0  0  0
 27 28  1  0  0  0  0
 28 29  1  0  0  0  0
 29 30  1  0  0  0  0
 30 31  1  0  0  0  0
 26 31  1  0  0  0  0
 18 32  4  0  0  0  0
 14 32  4  0  0  0  0
M  END
> <BindingDB_ID/CHEMBL_ID>
50501605

> <pKi>
6.8

> <Target Name>
Cyclin-A2/Cyclin-dependent kinase 2

> <Target Source Organism>
Homo sapiens

> <Target Uniprot>
P24941

> <Article DOI>
10.1021/acs.jmedchem.6b01670

$$$$

  Mrv2316 09262419122D          

 35 39  0  0  0  0            999 V2000
    4.1801   -1.8348    0.0000 C   0  0  0  0  0  0  0  0  0  0  0  0
    4.1801   -2.6598    0.0000 C   0  0  0  0  0  0  0  0  0  0  0  0
    4.8476   -3.1447    0.0000 N   0  0  0  0  0  0  0  0  0  0  0  0
    4.5926   -3.9294    0.0000 C   0  0  0  0  0  0  0  0  0  0  0  0
    5.0775   -4.5968    0.0000 N   0  0  0  0  0  0  0  0  0  0  0  0
    5.8980   -4.5106    0.0000 C   0  0  0  0  0  0  0  0  0  0  0  0
    6.3105   -3.7961    0.0000 C   0  0  0  0  0  0  0  0  0  0  0  0
    7.1175   -3.9676    0.0000 C   0  0  0  0  0  0  0  0  0  0  0  0
    7.2037   -4.7881    0.0000 C   0  0  0  0  0  0  0  0  0  0  0  0
    6.4501   -5.1237    0.0000 C   0  0  0  0  0  0  0  0  0  0  0  0
    3.7676   -3.9294    0.0000 S   0  0  0  0  0  0  0  0  0  0  0  0
    3.5127   -3.1447    0.0000 C   0  0  0  0  0  0  0  0  0  0  0  0
    2.7281   -2.8898    0.0000 C   0  0  0  0  0  0  0  0  0  0  0  0
    2.1150   -3.4418    0.0000 C   0  0  0  0  0  0  0  0  0  0  0  0
    1.3303   -3.1869    0.0000 C   0  0  0  0  0  0  0  0  0  0  0  0
    1.1588   -2.3799    0.0000 N   0  0  0  0  0  0  0  0  0  0  0  0
    1.7719   -1.8279    0.0000 C   0  0  0  0  0  0  0  0  0  0  0  0
    1.6004   -1.0209    0.0000 N   0  0  0  0  0  0  0  0  0  0  0  0
    2.2135   -0.4689    0.0000 C   0  0  0  0  0  0  0  0  0  0  0  0
    2.0420    0.3381    0.0000 C   0  0  0  0  0  0  0  0  0  0  0  0
    2.6550    0.8901    0.0000 C   0  0  0  0  0  0  0  0  0  0  0  0
    3.4397    0.6352    0.0000 C   0  0  0  0  0  0  0  0  0  0  0  0
    3.6112   -0.1718    0.0000 C   0  0  0  0  0  0  0  0  0  0  0  0
    2.9981   -0.7238    0.0000 N   0  0  0  0  0  0  0  0  0  0  0  0
    4.0528    1.1872    0.0000 N   0  0  0  0  0  0  0  0  0  0  0  0
    3.8812    1.9942    0.0000 C   0  0  0  0  0  0  0  0  0  0  0  0
    4.4943    2.5462    0.0000 C   0  0  0  0  0  0  0  0  0  0  0  0
    5.2790    2.2913    0.0000 N   0  0  0  0  0  0  0  0  0  0  0  0
    5.4505    1.4843    0.0000 C   0  0  0  0  0  0  0  0  0  0  0  0
    4.8374    0.9323    0.0000 C   0  0  0  0  0  0  0  0  0  0  0  0
    5.8920    2.8433    0.0000 S   0  0  0  0  0  0  0  0  0  0  0  0
    6.5051    3.3953    0.0000 C   0  0  0  0  0  0  0  0  0  0  0  0
    6.4441    2.2302    0.0000 O   0  0  0  0  0  0  0  0  0  0  0  0
    5.3400    3.4564    0.0000 O   0  0  0  0  0  0  0  0  0  0  0  0
    2.5565   -2.0828    0.0000 N   0  0  0  0  0  0  0  0  0  0  0  0
  1  2  1  0  0  0  0
  2  3  4  0  0  0  0
  3  4  4  0  0  0  0
  4  5  1  0  0  0  0
  5  6  1  0  0  0  0
  6  7  1  0  0  0  0
  7  8  1  0  0  0  0
  8  9  1  0  0  0  0
  9 10  1  0  0  0  0
  6 10  1  0  0  0  0
  4 11  4  0  0  0  0
 11 12  4  0  0  0  0
  2 12  4  0  0  0  0
 12 13  1  0  0  0  0
 13 14  4  0  0  0  0
 14 15  4  0  0  0  0
 15 16  4  0  0  0  0
 16 17  4  0  0  0  0
 17 18  1  0  0  0  0
 18 19  1  0  0  0  0
 19 20  4  0  0  0  0
 20 21  4  0  0  0  0
 21 22  4  0  0  0  0
 22 23  4  0  0  0  0
 23 24  4  0  0  0  0
 19 24  4  0  0  0  0
 22 25  1  0  0  0  0
 25 26  1  0  0  0  0
 26 27  1  0  0  0  0
 27 28  1  0  0  0  0
 28 29  1  0  0  0  0
 29 30  1  0  0  0  0
 25 30  1  0  0  0  0
 28 31  1  0  0  0  0
 31 32  1  0  0  0  0
 31 33  2  0  0  0  0
 31 34  2  0  0  0  0
 17 35  4  0  0  0  0
 13 35  4  0  0  0  0
M  END
> <BindingDB_ID/CHEMBL_ID>
50501606

> <pKi>
7.1

> <Target Name>
Cyclin-A2/Cyclin-dependent kinase 2

> <Target Source Organism>
Homo sapiens

> <Target Uniprot>
P24941

> <Article DOI>
10.1021/acs.jmedchem.6b01670

$$$$

  Mrv2316 09262419122D          

 32 36  0  0  0  0            999 V2000
    4.1801   -1.8348    0.0000 C   0  0  0  0  0  0  0  0  0  0  0  0
    4.1801   -2.6598    0.0000 C   0  0  0  0  0  0  0  0  0  0  0  0
    4.8476   -3.1447    0.0000 N   0  0  0  0  0  0  0  0  0  0  0  0
    4.5926   -3.9294    0.0000 C   0  0  0  0  0  0  0  0  0  0  0  0
    5.0775   -4.5968    0.0000 N   0  0  0  0  0  0  0  0  0  0  0  0
    5.8980   -4.5106    0.0000 C   0  0  0  0  0  0  0  0  0  0  0  0
    6.3105   -3.7961    0.0000 C   0  0  0  0  0  0  0  0  0  0  0  0
    7.1175   -3.9676    0.0000 C   0  0  0  0  0  0  0  0  0  0  0  0
    7.2037   -4.7881    0.0000 C   0  0  0  0  0  0  0  0  0  0  0  0
    6.4501   -5.1237    0.0000 C   0  0  0  0  0  0  0  0  0  0  0  0
    3.7676   -3.9294    0.0000 S   0  0  0  0  0  0  0  0  0  0  0  0
    3.5127   -3.1447    0.0000 C   0  0  0  0  0  0  0  0  0  0  0  0
    2.7281   -2.8898    0.0000 C   0  0  0  0  0  0  0  0  0  0  0  0
    2.1150   -3.4418    0.0000 C   0  0  0  0  0  0  0  0  0  0  0  0
    1.3303   -3.1869    0.0000 C   0  0  0  0  0  0  0  0  0  0  0  0
    1.1588   -2.3799    0.0000 N   0  0  0  0  0  0  0  0  0  0  0  0
    1.7719   -1.8279    0.0000 C   0  0  0  0  0  0  0  0  0  0  0  0
    1.6004   -1.0209    0.0000 N   0  0  0  0  0  0  0  0  0  0  0  0
    2.2135   -0.4689    0.0000 C   0  0  0  0  0  0  0  0  0  0  0  0
    2.0420    0.3381    0.0000 C   0  0  0  0  0  0  0  0  0  0  0  0
    2.6550    0.8901    0.0000 C   0  0  0  0  0  0  0  0  0  0  0  0
    3.4397    0.6352    0.0000 C   0  0  0  0  0  0  0  0  0  0  0  0
    3.6112   -0.1718    0.0000 C   0  0  0  0  0  0  0  0  0  0  0  0
    2.9981   -0.7238    0.0000 N   0  0  0  0  0  0  0  0  0  0  0  0
    4.0528    1.1872    0.0000 N   0  0  0  0  0  0  0  0  0  0  0  0
    3.8812    1.9942    0.0000 C   0  0  0  0  0  0  0  0  0  0  0  0
    4.4943    2.5462    0.0000 C   0  0  0  0  0  0  0  0  0  0  0  0
    5.2790    2.2913    0.0000 C   0  0  0  0  0  0  0  0  0  0  0  0
    5.8920    2.8433    0.0000 N   0  0  0  0  0  0  0  0  0  0  0  0
    5.4505    1.4843    0.0000 C   0  0  0  0  0  0  0  0  0  0  0  0
    4.8374    0.9323    0.0000 C   0  0  0  0  0  0  0  0  0  0  0  0
    2.5565   -2.0828    0.0000 N   0  0  0  0  0  0  0  0  0  0  0  0
  1  2  1  0  0  0  0
  2  3  4  0  0  0  0
  3  4  4  0  0  0  0
  4  5  1  0  0  0  0
  5  6  1  0  0  0  0
  6  7  1  0  0  0  0
  7  8  1  0  0  0  0
  8  9  1  0  0  0  0
  9 10  1  0  0  0  0
  6 10  1  0  0  0  0
  4 11  4  0  0  0  0
 11 12  4  0  0  0  0
  2 12  4  0  0  0  0
 12 13  1  0  0  0  0
 13 14  4  0  0  0  0
 14 15  4  0  0  0  0
 15 16  4  0  0  0  0
 16 17  4  0  0  0  0
 17 18  1  0  0  0  0
 18 19  1  0  0  0  0
 19 20  4  0  0  0  0
 20 21  4  0  0  0  0
 21 22  4  0  0  0  0
 22 23  4  0  0  0  0
 23 24  4  0  0  0  0
 19 24  4  0  0  0  0
 22 25  1  0  0  0  0
 25 26  1  0  0  0  0
 26 27  1  0  0  0  0
 27 28  1  0  0  0  0
 28 29  1  0  0  0  0
 28 30  1  0  0  0  0
 30 31  1  0  0  0  0
 25 31  1  0  0  0  0
 17 32  4  0  0  0  0
 13 32  4  0  0  0  0
M  END
> <BindingDB_ID/CHEMBL_ID>
50501608

> <pKi>
6.7

> <Target Name>
Cyclin-A2/Cyclin-dependent kinase 2

> <Target Source Organism>
Homo sapiens

> <Target Uniprot>
P24941

> <Article DOI>
10.1021/acs.jmedchem.6b01670

$$$$

  Mrv2316 09262419122D          

 31 35  0  0  0  0            999 V2000
    4.1801   -1.8348    0.0000 C   0  0  0  0  0  0  0  0  0  0  0  0
    4.1801   -2.6598    0.0000 C   0  0  0  0  0  0  0  0  0  0  0  0
    4.8476   -3.1447    0.0000 N   0  0  0  0  0  0  0  0  0  0  0  0
    4.5926   -3.9294    0.0000 C   0  0  0  0  0  0  0  0  0  0  0  0
    5.0775   -4.5968    0.0000 N   0  0  0  0  0  0  0  0  0  0  0  0
    5.8980   -4.5106    0.0000 C   0  0  0  0  0  0  0  0  0  0  0  0
    6.3105   -3.7961    0.0000 C   0  0  0  0  0  0  0  0  0  0  0  0
    7.1175   -3.9676    0.0000 C   0  0  0  0  0  0  0  0  0  0  0  0
    7.2037   -4.7881    0.0000 C   0  0  0  0  0  0  0  0  0  0  0  0
    6.4501   -5.1237    0.0000 C   0  0  0  0  0  0  0  0  0  0  0  0
    3.7676   -3.9294    0.0000 S   0  0  0  0  0  0  0  0  0  0  0  0
    3.5127   -3.1447    0.0000 C   0  0  0  0  0  0  0  0  0  0  0  0
    2.7281   -2.8898    0.0000 C   0  0  0  0  0  0  0  0  0  0  0  0
    2.1150   -3.4418    0.0000 C   0  0  0  0  0  0  0  0  0  0  0  0
    1.3303   -3.1869    0.0000 C   0  0  0  0  0  0  0  0  0  0  0  0
    1.1588   -2.3799    0.0000 N   0  0  0  0  0  0  0  0  0  0  0  0
    1.7719   -1.8279    0.0000 C   0  0  0  0  0  0  0  0  0  0  0  0
    1.6004   -1.0209    0.0000 N   0  0  0  0  0  0  0  0  0  0  0  0
    2.2135   -0.4689    0.0000 C   0  0  0  0  0  0  0  0  0  0  0  0
    2.0420    0.3381    0.0000 C   0  0  0  0  0  0  0  0  0  0  0  0
    2.6550    0.8901    0.0000 C   0  0  0  0  0  0  0  0  0  0  0  0
    3.4397    0.6352    0.0000 C   0  0  0  0  0  0  0  0  0  0  0  0
    3.6112   -0.1718    0.0000 C   0  0  0  0  0  0  0  0  0  0  0  0
    2.9981   -0.7238    0.0000 N   0  0  0  0  0  0  0  0  0  0  0  0
    4.0528    1.1872    0.0000 N   0  0  0  0  0  0  0  0  0  0  0  0
    3.8812    1.9942    0.0000 C   0  0  0  0  0  0  0  0  0  0  0  0
    4.4943    2.5462    0.0000 C   0  0  0  0  0  0  0  0  0  0  0  0
    5.2790    2.2913    0.0000 O   0  0  0  0  0  0  0  0  0  0  0  0
    5.4505    1.4843    0.0000 C   0  0  0  0  0  0  0  0  0  0  0  0
    4.8374    0.9323    0.0000 C   0  0  0  0  0  0  0  0  0  0  0  0
    2.5565   -2.0828    0.0000 N   0  0  0  0  0  0  0  0  0  0  0  0
  1  2  1  0  0  0  0
  2  3  4  0  0  0  0
  3  4  4  0  0  0  0
  4  5  1  0  0  0  0
  5  6  1  0  0  0  0
  6  7  1  0  0  0  0
  7  8  1  0  0  0  0
  8  9  1  0  0  0  0
  9 10  1  0  0  0  0
  6 10  1  0  0  0  0
  4 11  4  0  0  0  0
 11 12  4  0  0  0  0
  2 12  4  0  0  0  0
 12 13  1  0  0  0  0
 13 14  4  0  0  0  0
 14 15  4  0  0  0  0
 15 16  4  0  0  0  0
 16 17  4  0  0  0  0
 17 18  1  0  0  0  0
 18 19  1  0  0  0  0
 19 20  4  0  0  0  0
 20 21  4  0  0  0  0
 21 22  4  0  0  0  0
 22 23  4  0  0  0  0
 23 24  4  0  0  0  0
 19 24  4  0  0  0  0
 22 25  1  0  0  0  0
 25 26  1  0  0  0  0
 26 27  1  0  0  0  0
 27 28  1  0  0  0  0
 28 29  1  0  0  0  0
 29 30  1  0  0  0  0
 25 30  1  0  0  0  0
 17 31  4  0  0  0  0
 13 31  4  0  0  0  0
M  END
> <BindingDB_ID/CHEMBL_ID>
50501609

> <pKi>
5.3

> <Target Name>
Cyclin-A2/Cyclin-dependent kinase 2

> <Target Source Organism>
Homo sapiens

> <Target Uniprot>
P24941

> <Article DOI>
10.1021/acs.jmedchem.6b01670

$$$$

  Mrv2316 09262419122D          

 34 38  0  0  0  0            999 V2000
    0.6078   10.9527    0.0000 C   0  0  0  0  0  0  0  0  0  0  0  0
    1.3222   10.5402    0.0000 C   0  0  0  0  0  0  0  0  0  0  0  0
    2.0367   10.9527    0.0000 O   0  0  0  0  0  0  0  0  0  0  0  0
    1.3222    9.7152    0.0000 N   0  0  0  0  0  0  0  0  0  0  0  0
    2.0367    9.3027    0.0000 C   0  0  0  0  0  0  0  0  0  0  0  0
    2.0367    8.4777    0.0000 C   0  0  0  0  0  0  0  0  0  0  0  0
    1.3222    8.0652    0.0000 N   0  0  0  0  0  0  0  0  0  0  0  0
    0.6078    8.4777    0.0000 C   0  0  0  0  0  0  0  0  0  0  0  0
    0.6078    9.3027    0.0000 C   0  0  0  0  0  0  0  0  0  0  0  0
    1.3222    7.2402    0.0000 C   0  0  0  0  0  0  0  0  0  0  0  0
    2.0367    6.8277    0.0000 C   0  0  0  0  0  0  0  0  0  0  0  0
    2.0367    6.0027    0.0000 C   0  0  0  0  0  0  0  0  0  0  0  0
    1.3222    5.5902    0.0000 C   0  0  0  0  0  0  0  0  0  0  0  0
    1.3222    4.7652    0.0000 N   0  0  0  0  0  0  0  0  0  0  0  0
    2.0367    4.3527    0.0000 C   0  0  0  0  0  0  0  0  0  0  0  0
    2.7512    4.7652    0.0000 N   0  0  0  0  0  0  0  0  0  0  0  0
    3.4656    4.3527    0.0000 C   0  0  0  0  0  0  0  0  0  0  0  0
    3.4656    3.5277    0.0000 C   0  0  0  0  0  0  0  0  0  0  0  0
    2.7512    3.1152    0.0000 C   0  0  0  0  0  0  0  0  0  0  0  0
    2.0367    3.5277    0.0000 N   0  0  0  0  0  0  0  0  0  0  0  0
    2.7512    2.2902    0.0000 C   0  0  0  0  0  0  0  0  0  0  0  0
    3.4186    1.8053    0.0000 S   0  0  0  0  0  0  0  0  0  0  0  0
    3.1637    1.0206    0.0000 C   0  0  0  0  0  0  0  0  0  0  0  0
    3.6486    0.3532    0.0000 N   0  0  0  0  0  0  0  0  0  0  0  0
    3.3130   -0.4005    0.0000 C   0  0  0  0  0  0  0  0  0  0  0  0
    3.7255   -1.1149    0.0000 C   0  0  0  0  0  0  0  0  0  0  0  0
    3.1735   -1.7280    0.0000 C   0  0  0  0  0  0  0  0  0  0  0  0
    2.4198   -1.3925    0.0000 C   0  0  0  0  0  0  0  0  0  0  0  0
    2.5061   -0.5720    0.0000 C   0  0  0  0  0  0  0  0  0  0  0  0
    2.3387    1.0206    0.0000 N   0  0  0  0  0  0  0  0  0  0  0  0
    2.0837    1.8053    0.0000 C   0  0  0  0  0  0  0  0  0  0  0  0
    1.2991    2.0602    0.0000 C   0  0  0  0  0  0  0  0  0  0  0  0
    0.6078    6.0027    0.0000 N   0  0  0  0  0  0  0  0  0  0  0  0
    0.6078    6.8277    0.0000 C   0  0  0  0  0  0  0  0  0  0  0  0
  1  2  1  0  0  0  0
  2  3  2  0  0  0  0
  2  4  1  0  0  0  0
  4  5  1  0  0  0  0
  5  6  1  0  0  0  0
  6  7  1  0  0  0  0
  7  8  1  0  0  0  0
  8  9  1  0  0  0  0
  4  9  1  0  0  0  0
  7 10  1  0  0  0  0
 10 11  4  0  0  0  0
 11 12  4  0  0  0  0
 12 13  4  0  0  0  0
 13 14  1  0  0  0  0
 14 15  1  0  0  0  0
 15 16  4  0  0  0  0
 16 17  4  0  0  0  0
 17 18  4  0  0  0  0
 18 19  4  0  0  0  0
 19 20  4  0  0  0  0
 15 20  4  0  0  0  0
 19 21  1  0  0  0  0
 21 22  4  0  0  0  0
 22 23  4  0  0  0  0
 23 24  1  0  0  0  0
 24 25  1  0  0  0  0
 25 26  1  0  0  0  0
 26 27  1  0  0  0  0
 27 28  1  0  0  0  0
 28 29  1  0  0  0  0
 25 29  1  0  0  0  0
 23 30  4  0  0  0  0
 30 31  4  0  0  0  0
 21 31  4  0  0  0  0
 31 32  1  0  0  0  0
 13 33  4  0  0  0  0
 33 34  4  0  0  0  0
 10 34  4  0  0  0  0
M  END
> <BindingDB_ID/CHEMBL_ID>
50501610

> <pKi>
6.1

> <Target Name>
Cyclin-A2/Cyclin-dependent kinase 2

> <Target Source Organism>
Homo sapiens

> <Target Uniprot>
P24941

> <Article DOI>
10.1021/acs.jmedchem.6b01670

$$$$

  Mrv2316 09262419122D          

 33 37  0  0  0  0            999 V2000
    0.6078   10.9527    0.0000 C   0  0  0  0  0  0  0  0  0  0  0  0
    1.3222   10.5402    0.0000 C   0  0  0  0  0  0  0  0  0  0  0  0
    1.3222    9.7152    0.0000 N   0  0  0  0  0  0  0  0  0  0  0  0
    2.0367    9.3027    0.0000 C   0  0  0  0  0  0  0  0  0  0  0  0
    2.0367    8.4777    0.0000 C   0  0  0  0  0  0  0  0  0  0  0  0
    1.3222    8.0652    0.0000 N   0  0  0  0  0  0  0  0  0  0  0  0
    0.6078    8.4777    0.0000 C   0  0  0  0  0  0  0  0  0  0  0  0
    0.6078    9.3027    0.0000 C   0  0  0  0  0  0  0  0  0  0  0  0
    1.3222    7.2402    0.0000 C   0  0  0  0  0  0  0  0  0  0  0  0
    2.0367    6.8277    0.0000 C   0  0  0  0  0  0  0  0  0  0  0  0
    2.0367    6.0027    0.0000 C   0  0  0  0  0  0  0  0  0  0  0  0
    1.3222    5.5902    0.0000 C   0  0  0  0  0  0  0  0  0  0  0  0
    1.3222    4.7652    0.0000 N   0  0  0  0  0  0  0  0  0  0  0  0
    2.0367    4.3527    0.0000 C   0  0  0  0  0  0  0  0  0  0  0  0
    2.7512    4.7652    0.0000 N   0  0  0  0  0  0  0  0  0  0  0  0
    3.4656    4.3527    0.0000 C   0  0  0  0  0  0  0  0  0  0  0  0
    3.4656    3.5277    0.0000 C   0  0  0  0  0  0  0  0  0  0  0  0
    2.7512    3.1152    0.0000 C   0  0  0  0  0  0  0  0  0  0  0  0
    2.0367    3.5277    0.0000 N   0  0  0  0  0  0  0  0  0  0  0  0
    2.7512    2.2902    0.0000 C   0  0  0  0  0  0  0  0  0  0  0  0
    3.4186    1.8053    0.0000 S   0  0  0  0  0  0  0  0  0  0  0  0
    3.1637    1.0206    0.0000 C   0  0  0  0  0  0  0  0  0  0  0  0
    3.6486    0.3532    0.0000 N   0  0  0  0  0  0  0  0  0  0  0  0
    3.3130   -0.4005    0.0000 C   0  0  0  0  0  0  0  0  0  0  0  0
    3.7255   -1.1149    0.0000 C   0  0  0  0  0  0  0  0  0  0  0  0
    3.1735   -1.7280    0.0000 C   0  0  0  0  0  0  0  0  0  0  0  0
    2.4198   -1.3925    0.0000 C   0  0  0  0  0  0  0  0  0  0  0  0
    2.5061   -0.5720    0.0000 C   0  0  0  0  0  0  0  0  0  0  0  0
    2.3387    1.0206    0.0000 N   0  0  0  0  0  0  0  0  0  0  0  0
    2.0837    1.8053    0.0000 C   0  0  0  0  0  0  0  0  0  0  0  0
    1.2991    2.0602    0.0000 C   0  0  0  0  0  0  0  0  0  0  0  0
    0.6078    6.0027    0.0000 N   0  0  0  0  0  0  0  0  0  0  0  0
    0.6078    6.8277    0.0000 C   0  0  0  0  0  0  0  0  0  0  0  0
  1  2  1  0  0  0  0
  2  3  1  0  0  0  0
  3  4  1  0  0  0  0
  4  5  1  0  0  0  0
  5  6  1  0  0  0  0
  6  7  1  0  0  0  0
  7  8  1  0  0  0  0
  3  8  1  0  0  0  0
  6  9  1  0  0  0  0
  9 10  4  0  0  0  0
 10 11  4  0  0  0  0
 11 12  4  0  0  0  0
 12 13  1  0  0  0  0
 13 14  1  0  0  0  0
 14 15  4  0  0  0  0
 15 16  4  0  0  0  0
 16 17  4  0  0  0  0
 17 18  4  0  0  0  0
 18 19  4  0  0  0  0
 14 19  4  0  0  0  0
 18 20  1  0  0  0  0
 20 21  4  0  0  0  0
 21 22  4  0  0  0  0
 22 23  1  0  0  0  0
 23 24  1  0  0  0  0
 24 25  1  0  0  0  0
 25 26  1  0  0  0  0
 26 27  1  0  0  0  0
 27 28  1  0  0  0  0
 24 28  1  0  0  0  0
 22 29  4  0  0  0  0
 29 30  4  0  0  0  0
 20 30  4  0  0  0  0
 30 31  1  0  0  0  0
 12 32  4  0  0  0  0
 32 33  4  0  0  0  0
  9 33  4  0  0  0  0
M  END
> <BindingDB_ID/CHEMBL_ID>
50501611

> <pKi>
6.4

> <Target Name>
Cyclin-A2/Cyclin-dependent kinase 2

> <Target Source Organism>
Homo sapiens

> <Target Uniprot>
P24941

> <Article DOI>
10.1021/acs.jmedchem.6b01670

$$$$

  Mrv2316 09262419122D          

 32 36  0  0  0  0            999 V2000
    1.3222   10.5402    0.0000 C   0  0  0  0  0  0  0  0  0  0  0  0
    1.3222    9.7152    0.0000 N   0  0  0  0  0  0  0  0  0  0  0  0
    2.0367    9.3027    0.0000 C   0  0  0  0  0  0  0  0  0  0  0  0
    2.0367    8.4777    0.0000 C   0  0  0  0  0  0  0  0  0  0  0  0
    1.3222    8.0652    0.0000 N   0  0  0  0  0  0  0  0  0  0  0  0
    0.6078    8.4777    0.0000 C   0  0  0  0  0  0  0  0  0  0  0  0
    0.6078    9.3027    0.0000 C   0  0  0  0  0  0  0  0  0  0  0  0
    1.3222    7.2402    0.0000 C   0  0  0  0  0  0  0  0  0  0  0  0
    2.0367    6.8277    0.0000 C   0  0  0  0  0  0  0  0  0  0  0  0
    2.0367    6.0027    0.0000 C   0  0  0  0  0  0  0  0  0  0  0  0
    1.3222    5.5902    0.0000 C   0  0  0  0  0  0  0  0  0  0  0  0
    1.3222    4.7652    0.0000 N   0  0  0  0  0  0  0  0  0  0  0  0
    2.0367    4.3527    0.0000 C   0  0  0  0  0  0  0  0  0  0  0  0
    2.7512    4.7652    0.0000 N   0  0  0  0  0  0  0  0  0  0  0  0
    3.4656    4.3527    0.0000 C   0  0  0  0  0  0  0  0  0  0  0  0
    3.4656    3.5277    0.0000 C   0  0  0  0  0  0  0  0  0  0  0  0
    2.7512    3.1152    0.0000 C   0  0  0  0  0  0  0  0  0  0  0  0
    2.0367    3.5277    0.0000 N   0  0  0  0  0  0  0  0  0  0  0  0
    2.7512    2.2902    0.0000 C   0  0  0  0  0  0  0  0  0  0  0  0
    3.4186    1.8053    0.0000 S   0  0  0  0  0  0  0  0  0  0  0  0
    3.1637    1.0206    0.0000 C   0  0  0  0  0  0  0  0  0  0  0  0
    3.6486    0.3532    0.0000 N   0  0  0  0  0  0  0  0  0  0  0  0
    3.3130   -0.4005    0.0000 C   0  0  0  0  0  0  0  0  0  0  0  0
    3.7255   -1.1149    0.0000 C   0  0  0  0  0  0  0  0  0  0  0  0
    3.1735   -1.7280    0.0000 C   0  0  0  0  0  0  0  0  0  0  0  0
    2.4198   -1.3925    0.0000 C   0  0  0  0  0  0  0  0  0  0  0  0
    2.5061   -0.5720    0.0000 C   0  0  0  0  0  0  0  0  0  0  0  0
    2.3387    1.0206    0.0000 N   0  0  0  0  0  0  0  0  0  0  0  0
    2.0837    1.8053    0.0000 C   0  0  0  0  0  0  0  0  0  0  0  0
    1.2991    2.0602    0.0000 C   0  0  0  0  0  0  0  0  0  0  0  0
    0.6078    6.0027    0.0000 N   0  0  0  0  0  0  0  0  0  0  0  0
    0.6078    6.8277    0.0000 C   0  0  0  0  0  0  0  0  0  0  0  0
  1  2  1  0  0  0  0
  2  3  1  0  0  0  0
  3  4  1  0  0  0  0
  4  5  1  0  0  0  0
  5  6  1  0  0  0  0
  6  7  1  0  0  0  0
  2  7  1  0  0  0  0
  5  8  1  0  0  0  0
  8  9  4  0  0  0  0
  9 10  4  0  0  0  0
 10 11  4  0  0  0  0
 11 12  1  0  0  0  0
 12 13  1  0  0  0  0
 13 14  4  0  0  0  0
 14 15  4  0  0  0  0
 15 16  4  0  0  0  0
 16 17  4  0  0  0  0
 17 18  4  0  0  0  0
 13 18  4  0  0  0  0
 17 19  1  0  0  0  0
 19 20  4  0  0  0  0
 20 21  4  0  0  0  0
 21 22  1  0  0  0  0
 22 23  1  0  0  0  0
 23 24  1  0  0  0  0
 24 25  1  0  0  0  0
 25 26  1  0  0  0  0
 26 27  1  0  0  0  0
 23 27  1  0  0  0  0
 21 28  4  0  0  0  0
 28 29  4  0  0  0  0
 19 29  4  0  0  0  0
 29 30  1  0  0  0  0
 11 31  4  0  0  0  0
 31 32  4  0  0  0  0
  8 32  4  0  0  0  0
M  END
> <BindingDB_ID/CHEMBL_ID>
50501612

> <pKi>
6.7

> <Target Name>
Cyclin-A2/Cyclin-dependent kinase 2

> <Target Source Organism>
Homo sapiens

> <Target Uniprot>
P24941

> <Article DOI>
10.1021/acs.jmedchem.6b01670

$$$$

  Mrv2316 09262419122D          

 21 23  0  0  0  0            999 V2000
    2.1434   -4.5375    0.0000 N   0  0  0  0  0  0  0  0  0  0  0  0
    1.4289   -4.1250    0.0000 S   0  0  0  0  0  0  0  0  0  0  0  0
    1.8414   -3.4105    0.0000 O   0  0  0  0  0  0  0  0  0  0  0  0
    1.0164   -4.8395    0.0000 O   0  0  0  0  0  0  0  0  0  0  0  0
    0.7145   -3.7125    0.0000 C   0  0  0  0  0  0  0  0  0  0  0  0
    0.0000   -4.1250    0.0000 C   0  0  0  0  0  0  0  0  0  0  0  0
   -0.7145   -3.7125    0.0000 C   0  0  0  0  0  0  0  0  0  0  0  0
   -0.7145   -2.8875    0.0000 C   0  0  0  0  0  0  0  0  0  0  0  0
    0.0000   -2.4750    0.0000 C   0  0  0  0  0  0  0  0  0  0  0  0
    0.0000   -1.6500    0.0000 N   0  0  0  0  0  0  0  0  0  0  0  0
    0.7145   -1.2375    0.0000 C   0  0  0  0  0  0  0  0  0  0  0  0
    0.7145   -0.4125    0.0000 N   0  0  0  0  0  0  0  0  0  0  0  0
    1.4289    0.0000    0.0000 C   0  0  0  0  0  0  0  0  0  0  0  0
    2.1434   -0.4125    0.0000 C   0  0  0  0  0  0  0  0  0  0  0  0
    2.8579    0.0000    0.0000 C   0  0  0  0  0  0  0  0  0  0  0  0
    3.5724   -0.4125    0.0000 C   0  0  0  0  0  0  0  0  0  0  0  0
    3.5724   -1.2375    0.0000 C   0  0  0  0  0  0  0  0  0  0  0  0
    2.8579   -1.6500    0.0000 C   0  0  0  0  0  0  0  0  0  0  0  0
    2.1434   -1.2375    0.0000 C   0  0  0  0  0  0  0  0  0  0  0  0
    1.4289   -1.6500    0.0000 N   0  0  0  0  0  0  0  0  0  0  0  0
    0.7145   -2.8875    0.0000 C   0  0  0  0  0  0  0  0  0  0  0  0
  1  2  1  0  0  0  0
  2  3  2  0  0  0  0
  2  4  2  0  0  0  0
  2  5  1  0  0  0  0
  5  6  4  0  0  0  0
  6  7  4  0  0  0  0
  7  8  4  0  0  0  0
  8  9  4  0  0  0  0
  9 10  1  0  0  0  0
 10 11  1  0  0  0  0
 11 12  4  0  0  0  0
 12 13  4  0  0  0  0
 13 14  4  0  0  0  0
 14 15  1  0  0  0  0
 15 16  1  0  0  0  0
 16 17  1  0  0  0  0
 17 18  1  0  0  0  0
 18 19  1  0  0  0  0
 14 19  4  0  0  0  0
 19 20  4  0  0  0  0
 11 20  4  0  0  0  0
  9 21  4  0  0  0  0
  5 21  4  0  0  0  0
M  END
> <BindingDB_ID/CHEMBL_ID>
50525155

> <pKi>
6.6

> <Target Name>
Cyclin-A2/Cyclin-dependent kinase 2

> <Target Source Organism>
Homo sapiens

> <Target Uniprot>
P24941

> <Article DOI>
10.1021/acsmedchemlett.9b00029

$$$$

  Mrv2316 09262419122D          

 18 20  0  0  0  0            999 V2000
    1.4289   -4.1250    0.0000 C   0  0  0  0  0  0  0  0  0  0  0  0
    0.7145   -3.7125    0.0000 C   0  0  0  0  0  0  0  0  0  0  0  0
    0.0000   -4.1250    0.0000 C   0  0  0  0  0  0  0  0  0  0  0  0
   -0.7145   -3.7125    0.0000 C   0  0  0  0  0  0  0  0  0  0  0  0
   -0.7145   -2.8875    0.0000 C   0  0  0  0  0  0  0  0  0  0  0  0
    0.0000   -2.4750    0.0000 C   0  0  0  0  0  0  0  0  0  0  0  0
    0.0000   -1.6500    0.0000 N   0  0  0  0  0  0  0  0  0  0  0  0
    0.7145   -1.2375    0.0000 C   0  0  0  0  0  0  0  0  0  0  0  0
    0.7145   -0.4125    0.0000 N   0  0  0  0  0  0  0  0  0  0  0  0
    1.4289    0.0000    0.0000 C   0  0  0  0  0  0  0  0  0  0  0  0
    2.1434   -0.4125    0.0000 C   0  0  0  0  0  0  0  0  0  0  0  0
    2.8579    0.0000    0.0000 C   0  0  0  0  0  0  0  0  0  0  0  0
    3.5724   -0.4125    0.0000 C   0  0  0  0  0  0  0  0  0  0  0  0
    3.5724   -1.2375    0.0000 C   0  0  0  0  0  0  0  0  0  0  0  0
    2.8579   -1.6500    0.0000 C   0  0  0  0  0  0  0  0  0  0  0  0
    2.1434   -1.2375    0.0000 C   0  0  0  0  0  0  0  0  0  0  0  0
    1.4289   -1.6500    0.0000 N   0  0  0  0  0  0  0  0  0  0  0  0
    0.7145   -2.8875    0.0000 C   0  0  0  0  0  0  0  0  0  0  0  0
  1  2  1  0  0  0  0
  2  3  4  0  0  0  0
  3  4  4  0  0  0  0
  4  5  4  0  0  0  0
  5  6  4  0  0  0  0
  6  7  1  0  0  0  0
  7  8  1  0  0  0  0
  8  9  4  0  0  0  0
  9 10  4  0  0  0  0
 10 11  4  0  0  0  0
 11 12  1  0  0  0  0
 12 13  1  0  0  0  0
 13 14  1  0  0  0  0
 14 15  1  0  0  0  0
 15 16  1  0  0  0  0
 11 16  4  0  0  0  0
 16 17  4  0  0  0  0
  8 17  4  0  0  0  0
  6 18  4  0  0  0  0
  2 18  4  0  0  0  0
M  END
> <BindingDB_ID/CHEMBL_ID>
50525156

> <pKi>
5.5

> <Target Name>
Cyclin-A2/Cyclin-dependent kinase 2

> <Target Source Organism>
Homo sapiens

> <Target Uniprot>
P24941

> <Article DOI>
10.1021/acsmedchemlett.9b00029

$$$$

  Mrv2316 09262419122D          

 19 21  0  0  0  0            999 V2000
    1.4289   -4.9500    0.0000 C   0  0  0  0  0  0  0  0  0  0  0  0
    1.4289   -4.1250    0.0000 O   0  0  0  0  0  0  0  0  0  0  0  0
    0.7145   -3.7125    0.0000 C   0  0  0  0  0  0  0  0  0  0  0  0
    0.0000   -4.1250    0.0000 C   0  0  0  0  0  0  0  0  0  0  0  0
   -0.7145   -3.7125    0.0000 C   0  0  0  0  0  0  0  0  0  0  0  0
   -0.7145   -2.8875    0.0000 C   0  0  0  0  0  0  0  0  0  0  0  0
    0.0000   -2.4750    0.0000 C   0  0  0  0  0  0  0  0  0  0  0  0
    0.0000   -1.6500    0.0000 N   0  0  0  0  0  0  0  0  0  0  0  0
    0.7145   -1.2375    0.0000 C   0  0  0  0  0  0  0  0  0  0  0  0
    0.7145   -0.4125    0.0000 N   0  0  0  0  0  0  0  0  0  0  0  0
    1.4289    0.0000    0.0000 C   0  0  0  0  0  0  0  0  0  0  0  0
    2.1434   -0.4125    0.0000 C   0  0  0  0  0  0  0  0  0  0  0  0
    2.8579    0.0000    0.0000 C   0  0  0  0  0  0  0  0  0  0  0  0
    3.5724   -0.4125    0.0000 C   0  0  0  0  0  0  0  0  0  0  0  0
    3.5724   -1.2375    0.0000 C   0  0  0  0  0  0  0  0  0  0  0  0
    2.8579   -1.6500    0.0000 C   0  0  0  0  0  0  0  0  0  0  0  0
    2.1434   -1.2375    0.0000 C   0  0  0  0  0  0  0  0  0  0  0  0
    1.4289   -1.6500    0.0000 N   0  0  0  0  0  0  0  0  0  0  0  0
    0.7145   -2.8875    0.0000 C   0  0  0  0  0  0  0  0  0  0  0  0
  1  2  1  0  0  0  0
  2  3  1  0  0  0  0
  3  4  4  0  0  0  0
  4  5  4  0  0  0  0
  5  6  4  0  0  0  0
  6  7  4  0  0  0  0
  7  8  1  0  0  0  0
  8  9  1  0  0  0  0
  9 10  4  0  0  0  0
 10 11  4  0  0  0  0
 11 12  4  0  0  0  0
 12 13  1  0  0  0  0
 13 14  1  0  0  0  0
 14 15  1  0  0  0  0
 15 16  1  0  0  0  0
 16 17  1  0  0  0  0
 12 17  4  0  0  0  0
 17 18  4  0  0  0  0
  9 18  4  0  0  0  0
  7 19  4  0  0  0  0
  3 19  4  0  0  0  0
M  END
> <BindingDB_ID/CHEMBL_ID>
50525157

> <pKi>
6.0

> <Target Name>
Cyclin-A2/Cyclin-dependent kinase 2

> <Target Source Organism>
Homo sapiens

> <Target Uniprot>
P24941

> <Article DOI>
10.1021/acsmedchemlett.9b00029

$$$$

  Mrv2316 09262419122D          

 20 22  0  0  0  0            999 V2000
    1.4289   -4.9500    0.0000 O   0  5  0  0  0  0  0  0  0  0  0  0
    1.4289   -4.1250    0.0000 N   0  3  0  0  0  0  0  0  0  0  0  0
    2.1434   -3.7125    0.0000 O   0  0  0  0  0  0  0  0  0  0  0  0
    0.7145   -3.7125    0.0000 C   0  0  0  0  0  0  0  0  0  0  0  0
    0.0000   -4.1250    0.0000 C   0  0  0  0  0  0  0  0  0  0  0  0
   -0.7145   -3.7125    0.0000 C   0  0  0  0  0  0  0  0  0  0  0  0
   -0.7145   -2.8875    0.0000 C   0  0  0  0  0  0  0  0  0  0  0  0
    0.0000   -2.4750    0.0000 C   0  0  0  0  0  0  0  0  0  0  0  0
    0.0000   -1.6500    0.0000 N   0  0  0  0  0  0  0  0  0  0  0  0
    0.7145   -1.2375    0.0000 C   0  0  0  0  0  0  0  0  0  0  0  0
    0.7145   -0.4125    0.0000 N   0  0  0  0  0  0  0  0  0  0  0  0
    1.4289    0.0000    0.0000 C   0  0  0  0  0  0  0  0  0  0  0  0
    2.1434   -0.4125    0.0000 C   0  0  0  0  0  0  0  0  0  0  0  0
    2.8579    0.0000    0.0000 C   0  0  0  0  0  0  0  0  0  0  0  0
    3.5724   -0.4125    0.0000 C   0  0  0  0  0  0  0  0  0  0  0  0
    3.5724   -1.2375    0.0000 C   0  0  0  0  0  0  0  0  0  0  0  0
    2.8579   -1.6500    0.0000 C   0  0  0  0  0  0  0  0  0  0  0  0
    2.1434   -1.2375    0.0000 C   0  0  0  0  0  0  0  0  0  0  0  0
    1.4289   -1.6500    0.0000 N   0  0  0  0  0  0  0  0  0  0  0  0
    0.7145   -2.8875    0.0000 C   0  0  0  0  0  0  0  0  0  0  0  0
  1  2  1  0  0  0  0
  2  3  2  0  0  0  0
  2  4  1  0  0  0  0
  4  5  4  0  0  0  0
  5  6  4  0  0  0  0
  6  7  4  0  0  0  0
  7  8  4  0  0  0  0
  8  9  1  0  0  0  0
  9 10  1  0  0  0  0
 10 11  4  0  0  0  0
 11 12  4  0  0  0  0
 12 13  4  0  0  0  0
 13 14  1  0  0  0  0
 14 15  1  0  0  0  0
 15 16  1  0  0  0  0
 16 17  1  0  0  0  0
 17 18  1  0  0  0  0
 13 18  4  0  0  0  0
 18 19  4  0  0  0  0
 10 19  4  0  0  0  0
  8 20  4  0  0  0  0
  4 20  4  0  0  0  0
M  CHG  2   1  -1   2   1
M  END
> <BindingDB_ID/CHEMBL_ID>
50525159

> <pKi>
6.0

> <Target Name>
Cyclin-A2/Cyclin-dependent kinase 2

> <Target Source Organism>
Homo sapiens

> <Target Uniprot>
P24941

> <Article DOI>
10.1021/acsmedchemlett.9b00029

$$$$

  Mrv2316 09262419122D          

 18 20  0  0  0  0            999 V2000
    1.4289   -2.4750    0.0000 C   0  0  0  0  0  0  0  0  0  0  0  0
    0.7145   -2.8875    0.0000 C   0  0  0  0  0  0  0  0  0  0  0  0
    0.7145   -3.7125    0.0000 C   0  0  0  0  0  0  0  0  0  0  0  0
    0.0000   -4.1250    0.0000 C   0  0  0  0  0  0  0  0  0  0  0  0
   -0.7145   -3.7125    0.0000 C   0  0  0  0  0  0  0  0  0  0  0  0
   -0.7145   -2.8875    0.0000 C   0  0  0  0  0  0  0  0  0  0  0  0
    0.0000   -2.4750    0.0000 C   0  0  0  0  0  0  0  0  0  0  0  0
    0.0000   -1.6500    0.0000 N   0  0  0  0  0  0  0  0  0  0  0  0
    0.7145   -1.2375    0.0000 C   0  0  0  0  0  0  0  0  0  0  0  0
    0.7145   -0.4125    0.0000 N   0  0  0  0  0  0  0  0  0  0  0  0
    1.4289    0.0000    0.0000 C   0  0  0  0  0  0  0  0  0  0  0  0
    2.1434   -0.4125    0.0000 C   0  0  0  0  0  0  0  0  0  0  0  0
    2.8579    0.0000    0.0000 C   0  0  0  0  0  0  0  0  0  0  0  0
    3.5724   -0.4125    0.0000 C   0  0  0  0  0  0  0  0  0  0  0  0
    3.5724   -1.2375    0.0000 C   0  0  0  0  0  0  0  0  0  0  0  0
    2.8579   -1.6500    0.0000 C   0  0  0  0  0  0  0  0  0  0  0  0
    2.1434   -1.2375    0.0000 C   0  0  0  0  0  0  0  0  0  0  0  0
    1.4289   -1.6500    0.0000 N   0  0  0  0  0  0  0  0  0  0  0  0
  1  2  1  0  0  0  0
  2  3  4  0  0  0  0
  3  4  4  0  0  0  0
  4  5  4  0  0  0  0
  5  6  4  0  0  0  0
  6  7  4  0  0  0  0
  2  7  4  0  0  0  0
  7  8  1  0  0  0  0
  8  9  1  0  0  0  0
  9 10  4  0  0  0  0
 10 11  4  0  0  0  0
 11 12  4  0  0  0  0
 12 13  1  0  0  0  0
 13 14  1  0  0  0  0
 14 15  1  0  0  0  0
 15 16  1  0  0  0  0
 16 17  1  0  0  0  0
 12 17  4  0  0  0  0
 17 18  4  0  0  0  0
  9 18  4  0  0  0  0
M  END
> <BindingDB_ID/CHEMBL_ID>
50525160

> <pKi>
5.4

> <Target Name>
Cyclin-A2/Cyclin-dependent kinase 2

> <Target Source Organism>
Homo sapiens

> <Target Uniprot>
P24941

> <Article DOI>
10.1021/acsmedchemlett.9b00029

$$$$

  Mrv2316 09262419122D          

 18 20  0  0  0  0            999 V2000
    0.0000   -4.9500    0.0000 C   0  0  0  0  0  0  0  0  0  0  0  0
    0.0000   -4.1250    0.0000 C   0  0  0  0  0  0  0  0  0  0  0  0
   -0.7145   -3.7125    0.0000 C   0  0  0  0  0  0  0  0  0  0  0  0
   -0.7145   -2.8875    0.0000 C   0  0  0  0  0  0  0  0  0  0  0  0
    0.0000   -2.4750    0.0000 C   0  0  0  0  0  0  0  0  0  0  0  0
    0.0000   -1.6500    0.0000 N   0  0  0  0  0  0  0  0  0  0  0  0
    0.7145   -1.2375    0.0000 C   0  0  0  0  0  0  0  0  0  0  0  0
    0.7145   -0.4125    0.0000 N   0  0  0  0  0  0  0  0  0  0  0  0
    1.4289    0.0000    0.0000 C   0  0  0  0  0  0  0  0  0  0  0  0
    2.1434   -0.4125    0.0000 C   0  0  0  0  0  0  0  0  0  0  0  0
    2.8579    0.0000    0.0000 C   0  0  0  0  0  0  0  0  0  0  0  0
    3.5724   -0.4125    0.0000 C   0  0  0  0  0  0  0  0  0  0  0  0
    3.5724   -1.2375    0.0000 C   0  0  0  0  0  0  0  0  0  0  0  0
    2.8579   -1.6500    0.0000 C   0  0  0  0  0  0  0  0  0  0  0  0
    2.1434   -1.2375    0.0000 C   0  0  0  0  0  0  0  0  0  0  0  0
    1.4289   -1.6500    0.0000 N   0  0  0  0  0  0  0  0  0  0  0  0
    0.7145   -2.8875    0.0000 C   0  0  0  0  0  0  0  0  0  0  0  0
    0.7145   -3.7125    0.0000 C   0  0  0  0  0  0  0  0  0  0  0  0
  1  2  1  0  0  0  0
  2  3  4  0  0  0  0
  3  4  4  0  0  0  0
  4  5  4  0  0  0  0
  5  6  1  0  0  0  0
  6  7  1  0  0  0  0
  7  8  4  0  0  0  0
  8  9  4  0  0  0  0
  9 10  4  0  0  0  0
 10 11  1  0  0  0  0
 11 12  1  0  0  0  0
 12 13  1  0  0  0  0
 13 14  1  0  0  0  0
 14 15  1  0  0  0  0
 10 15  4  0  0  0  0
 15 16  4  0  0  0  0
  7 16  4  0  0  0  0
  5 17  4  0  0  0  0
 17 18  4  0  0  0  0
  2 18  4  0  0  0  0
M  END
> <BindingDB_ID/CHEMBL_ID>
50525161

> <pKi>
5.3

> <Target Name>
Cyclin-A2/Cyclin-dependent kinase 2

> <Target Source Organism>
Homo sapiens

> <Target Uniprot>
P24941

> <Article DOI>
10.1021/acsmedchemlett.9b00029

$$$$

  Mrv2316 09262419122D          

 30 33  0  0  0  0            999 V2000
   -1.4289    4.9500    0.0000 C   0  0  0  0  0  0  0  0  0  0  0  0
   -0.7145    4.5375    0.0000 O   0  0  0  0  0  0  0  0  0  0  0  0
   -0.7145    3.7125    0.0000 C   0  0  0  0  0  0  0  0  0  0  0  0
    0.0000    3.3000    0.0000 C   0  0  0  0  0  0  0  0  0  0  0  0
    0.0000    2.4750    0.0000 C   0  0  0  0  0  0  0  0  0  0  0  0
   -0.7145    2.0625    0.0000 C   0  0  0  0  0  0  0  0  0  0  0  0
   -1.4289    2.4750    0.0000 C   0  0  0  0  0  0  0  0  0  0  0  0
   -1.4289    3.3000    0.0000 C   0  0  0  0  0  0  0  0  0  0  0  0
   -0.7145    1.2375    0.0000 C   0  0  0  0  0  0  0  0  0  0  0  0
   -1.4289    0.8250    0.0000 O   0  0  0  0  0  0  0  0  0  0  0  0
    0.0000    0.8250    0.0000 C   0  0  0  0  0  0  0  0  0  0  0  0
    0.0000    0.0000    0.0000 C   0  0  0  0  0  0  0  0  0  0  0  0
    0.7145   -0.4125    0.0000 N   0  0  0  0  0  0  0  0  0  0  0  0
    0.7145   -1.2375    0.0000 C   0  0  0  0  0  0  0  0  0  0  0  0
    1.3819   -1.7224    0.0000 C   0  0  0  0  0  0  0  0  0  0  0  0
    1.1270   -2.5070    0.0000 C   0  0  0  0  0  0  0  0  0  0  0  0
    0.3020   -2.5070    0.0000 N   0  0  0  0  0  0  0  0  0  0  0  0
    0.0470   -1.7224    0.0000 N   0  0  0  0  0  0  0  0  0  0  0  0
   -0.7376   -1.4675    0.0000 C   0  0  0  0  0  0  0  0  0  0  0  0
   -1.3507   -2.0195    0.0000 C   0  0  0  0  0  0  0  0  0  0  0  0
   -2.1353   -1.7646    0.0000 C   0  0  0  0  0  0  0  0  0  0  0  0
   -2.3068   -0.9576    0.0000 C   0  0  0  0  0  0  0  0  0  0  0  0
   -1.6937   -0.4056    0.0000 C   0  0  0  0  0  0  0  0  0  0  0  0
   -0.9091   -0.6605    0.0000 C   0  0  0  0  0  0  0  0  0  0  0  0
    1.6119   -3.1745    0.0000 C   0  0  0  0  0  0  0  0  0  0  0  0
    2.4324   -3.0882    0.0000 C   0  0  0  0  0  0  0  0  0  0  0  0
    2.9173   -3.7557    0.0000 C   0  0  0  0  0  0  0  0  0  0  0  0
    2.5817   -4.5094    0.0000 C   0  0  0  0  0  0  0  0  0  0  0  0
    1.7613   -4.5956    0.0000 C   0  0  0  0  0  0  0  0  0  0  0  0
    1.2763   -3.9282    0.0000 C   0  0  0  0  0  0  0  0  0  0  0  0
  1  2  1  0  0  0  0
  2  3  1  0  0  0  0
  3  4  4  0  0  0  0
  4  5  4  0  0  0  0
  5  6  4  0  0  0  0
  6  7  4  0  0  0  0
  7  8  4  0  0  0  0
  3  8  4  0  0  0  0
  6  9  1  0  0  0  0
  9 10  2  0  0  0  0
 11  9  1  4  0  0  0
 11 12  2  0  0  0  0
 12 13  1  0  0  0  0
 13 14  1  0  0  0  0
 14 15  4  0  0  0  0
 15 16  4  0  0  0  0
 16 17  4  0  0  0  0
 17 18  4  0  0  0  0
 14 18  4  0  0  0  0
 18 19  1  0  0  0  0
 19 20  4  0  0  0  0
 20 21  4  0  0  0  0
 21 22  4  0  0  0  0
 22 23  4  0  0  0  0
 23 24  4  0  0  0  0
 19 24  4  0  0  0  0
 16 25  1  0  0  0  0
 25 26  4  0  0  0  0
 26 27  4  0  0  0  0
 27 28  4  0  0  0  0
 28 29  4  0  0  0  0
 29 30  4  0  0  0  0
 25 30  4  0  0  0  0
M  END
> <BindingDB_ID/CHEMBL_ID>
50567652

> <pKi>
7.6

> <Target Name>
Cyclin-A2/Cyclin-dependent kinase 2

> <Target Source Organism>
Homo sapiens

> <Target Uniprot>
P24941

> <Article DOI>
10.1016/j.ejmech.2021.113389

$$$$

  Mrv2316 09262419122D          

 28 32  0  0  0  0            999 V2000
    3.2789    4.5375    0.0000 F   0  0  0  0  0  0  0  0  0  0  0  0
    3.2789    3.7125    0.0000 C   0  0  0  0  0  0  0  0  0  0  0  0
    3.9934    3.3000    0.0000 C   0  0  0  0  0  0  0  0  0  0  0  0
    3.9934    2.4750    0.0000 C   0  0  0  0  0  0  0  0  0  0  0  0
    3.2789    2.0625    0.0000 C   0  0  0  0  0  0  0  0  0  0  0  0
    2.5645    2.4750    0.0000 C   0  0  0  0  0  0  0  0  0  0  0  0
    2.5645    3.3000    0.0000 C   0  0  0  0  0  0  0  0  0  0  0  0
    3.2789    1.2375    0.0000 C   0  0  0  0  0  0  0  0  0  0  0  0
    3.9934    0.8250    0.0000 C   0  0  0  0  0  0  0  0  0  0  0  0
    3.9934    0.0000    0.0000 C   0  0  0  0  0  0  0  0  0  0  0  0
    3.2789   -0.4125    0.0000 N   0  0  0  0  0  0  0  0  0  0  0  0
    2.5645    0.0000    0.0000 C   0  0  0  0  0  0  0  0  0  0  0  0
    1.7798   -0.2549    0.0000 N   0  0  0  0  0  0  0  0  0  0  0  0
    1.2949    0.4125    0.0000 N   0  0  0  0  0  0  0  0  0  0  0  0
    1.7798    1.0799    0.0000 C   0  0  0  0  0  0  0  0  0  0  0  0
    1.5249    1.8646    0.0000 C   0  0  0  0  0  0  0  0  0  0  0  0
    0.7179    2.0361    0.0000 C   0  0  0  0  0  0  0  0  0  0  0  0
    0.4630    2.8207    0.0000 C   0  0  0  0  0  0  0  0  0  0  0  0
    1.0150    3.4338    0.0000 C   0  0  0  0  0  0  0  0  0  0  0  0
    1.8220    3.2623    0.0000 C   0  0  0  0  0  0  0  0  0  0  0  0
    2.0769    2.4777    0.0000 C   0  0  0  0  0  0  0  0  0  0  0  0
    2.5645    0.8250    0.0000 C   0  0  0  0  0  0  0  0  0  0  0  0
    1.5249   -1.0396    0.0000 C   0  0  0  0  0  0  0  0  0  0  0  0
    2.0769   -1.6527    0.0000 C   0  0  0  0  0  0  0  0  0  0  0  0
    1.8220   -2.4373    0.0000 C   0  0  0  0  0  0  0  0  0  0  0  0
    1.0150   -2.6088    0.0000 C   0  0  0  0  0  0  0  0  0  0  0  0
    0.4630   -1.9957    0.0000 C   0  0  0  0  0  0  0  0  0  0  0  0
    0.7179   -1.2111    0.0000 C   0  0  0  0  0  0  0  0  0  0  0  0
  1  2  1  0  0  0  0
  2  3  4  0  0  0  0
  3  4  4  0  0  0  0
  4  5  4  0  0  0  0
  5  6  4  0  0  0  0
  6  7  4  0  0  0  0
  2  7  4  0  0  0  0
  5  8  1  0  0  0  0
  8  9  4  0  0  0  0
  9 10  4  0  0  0  0
 10 11  4  0  0  0  0
 11 12  4  0  0  0  0
 12 13  4  0  0  0  0
 13 14  4  0  0  0  0
 14 15  4  0  0  0  0
 15 16  1  0  0  0  0
 16 17  4  0  0  0  0
 17 18  4  0  0  0  0
 18 19  4  0  0  0  0
 19 20  4  0  0  0  0
 20 21  4  0  0  0  0
 16 21  4  0  0  0  0
 15 22  4  0  0  0  0
  8 22  4  0  0  0  0
 12 22  4  0  0  0  0
 13 23  1  0  0  0  0
 23 24  4  0  0  0  0
 24 25  4  0  0  0  0
 25 26  4  0  0  0  0
 26 27  4  0  0  0  0
 27 28  4  0  0  0  0
 23 28  4  0  0  0  0
M  END
> <BindingDB_ID/CHEMBL_ID>
50567655

> <pKi>
7.6

> <Target Name>
Cyclin-A2/Cyclin-dependent kinase 2

> <Target Source Organism>
Homo sapiens

> <Target Uniprot>
P24941

> <Article DOI>
10.1016/j.ejmech.2021.113389

$$$$

  Mrv2316 09262419122D          

 43 49  0  0  0  0            999 V2000
    5.6424   -0.1271    0.0000 C   0  0  0  0  0  0  0  0  0  0  0  0
    4.9279   -0.5396    0.0000 O   0  0  0  0  0  0  0  0  0  0  0  0
    4.2135   -0.1271    0.0000 C   0  0  0  0  0  0  0  0  0  0  0  0
    3.4990   -0.5396    0.0000 C   0  0  0  0  0  0  0  0  0  0  0  0
    2.7845   -0.1271    0.0000 C   0  0  0  0  0  0  0  0  0  0  0  0
    2.7845    0.6979    0.0000 C   0  0  0  0  0  0  0  0  0  0  0  0
    3.4990    1.1104    0.0000 C   0  0  0  0  0  0  0  0  0  0  0  0
    4.2135    0.6979    0.0000 C   0  0  0  0  0  0  0  0  0  0  0  0
    2.0701    1.1104    0.0000 C   0  0  0  0  0  0  0  0  0  0  0  0
    1.3556    0.6979    0.0000 N   0  0  0  0  0  0  0  0  0  0  0  0
    0.6411    1.1104    0.0000 C   0  0  0  0  0  0  0  0  0  0  0  0
   -0.1435    0.8555    0.0000 N   0  0  0  0  0  0  0  0  0  0  0  0
   -0.6284    1.5229    0.0000 N   0  0  0  0  0  0  0  0  0  0  0  0
   -0.1435    2.1904    0.0000 C   0  0  0  0  0  0  0  0  0  0  0  0
   -0.3984    2.9750    0.0000 C   0  0  0  0  0  0  0  0  0  0  0  0
   -1.2054    3.1465    0.0000 C   0  0  0  0  0  0  0  0  0  0  0  0
   -1.4604    3.9312    0.0000 C   0  0  0  0  0  0  0  0  0  0  0  0
   -0.9083    4.5442    0.0000 C   0  0  0  0  0  0  0  0  0  0  0  0
   -0.1014    4.3727    0.0000 C   0  0  0  0  0  0  0  0  0  0  0  0
    0.1536    3.5881    0.0000 C   0  0  0  0  0  0  0  0  0  0  0  0
    0.6411    1.9354    0.0000 C   0  0  0  0  0  0  0  0  0  0  0  0
    1.3556    2.3479    0.0000 C   0  0  0  0  0  0  0  0  0  0  0  0
    1.3556    3.1729    0.0000 C   0  0  0  0  0  0  0  0  0  0  0  0
    0.6411    3.5854    0.0000 C   0  0  0  0  0  0  0  0  0  0  0  0
    0.6411    4.4104    0.0000 C   0  0  0  0  0  0  0  0  0  0  0  0
    1.3556    4.8229    0.0000 C   0  0  0  0  0  0  0  0  0  0  0  0
    2.0701    4.4104    0.0000 C   0  0  0  0  0  0  0  0  0  0  0  0
    2.0701    3.5854    0.0000 C   0  0  0  0  0  0  0  0  0  0  0  0
    1.3556    5.6479    0.0000 N   0  0  0  0  0  0  0  0  0  0  0  0
    0.6411    6.0604    0.0000 C   0  0  0  0  0  0  0  0  0  0  0  0
    0.6411    6.8854    0.0000 C   0  0  0  0  0  0  0  0  0  0  0  0
    1.3556    7.2979    0.0000 O   0  0  0  0  0  0  0  0  0  0  0  0
    2.0701    6.8854    0.0000 C   0  0  0  0  0  0  0  0  0  0  0  0
    2.0701    6.0604    0.0000 C   0  0  0  0  0  0  0  0  0  0  0  0
    2.0701    1.9354    0.0000 C   0  0  0  0  0  0  0  0  0  0  0  0
    2.7845    2.3479    0.0000 C   0  0  0  0  0  0  0  0  0  0  0  0
    3.4990    2.7604    0.0000 N   0  0  0  0  0  0  0  0  0  0  0  0
   -0.3984    0.0709    0.0000 C   0  0  0  0  0  0  0  0  0  0  0  0
    0.1536   -0.5422    0.0000 C   0  0  0  0  0  0  0  0  0  0  0  0
   -0.1014   -1.3268    0.0000 C   0  0  0  0  0  0  0  0  0  0  0  0
   -0.9083   -1.4984    0.0000 C   0  0  0  0  0  0  0  0  0  0  0  0
   -1.4604   -0.8853    0.0000 C   0  0  0  0  0  0  0  0  0  0  0  0
   -1.2054   -0.1006    0.0000 C   0  0  0  0  0  0  0  0  0  0  0  0
  1  2  1  0  0  0  0
  2  3  1  0  0  0  0
  3  4  4  0  0  0  0
  4  5  4  0  0  0  0
  5  6  4  0  0  0  0
  6  7  4  0  0  0  0
  7  8  4  0  0  0  0
  3  8  4  0  0  0  0
  6  9  1  0  0  0  0
  9 10  4  0  0  0  0
 10 11  4  0  0  0  0
 11 12  4  0  0  0  0
 12 13  4  0  0  0  0
 13 14  4  0  0  0  0
 14 15  1  0  0  0  0
 15 16  4  0  0  0  0
 16 17  4  0  0  0  0
 17 18  4  0  0  0  0
 18 19  4  0  0  0  0
 19 20  4  0  0  0  0
 15 20  4  0  0  0  0
 14 21  4  0  0  0  0
 11 21  4  0  0  0  0
 21 22  4  0  0  0  0
 22 23  1  0  0  0  0
 23 24  4  0  0  0  0
 24 25  4  0  0  0  0
 25 26  4  0  0  0  0
 26 27  4  0  0  0  0
 27 28  4  0  0  0  0
 23 28  4  0  0  0  0
 26 29  1  0  0  0  0
 29 30  1  0  0  0  0
 30 31  1  0  0  0  0
 31 32  1  0  0  0  0
 32 33  1  0  0  0  0
 33 34  1  0  0  0  0
 29 34  1  0  0  0  0
 22 35  4  0  0  0  0
  9 35  4  0  0  0  0
 35 36  1  0  0  0  0
 36 37  3  0  0  0  0
 12 38  1  0  0  0  0
 38 39  4  0  0  0  0
 39 40  4  0  0  0  0
 40 41  4  0  0  0  0
 41 42  4  0  0  0  0
 42 43  4  0  0  0  0
 38 43  4  0  0  0  0
M  END
> <BindingDB_ID/CHEMBL_ID>
50567665

> <pKi>
6.9

> <Target Name>
Cyclin-A2/Cyclin-dependent kinase 2

> <Target Source Organism>
Homo sapiens

> <Target Uniprot>
P24941

> <Article DOI>
10.1016/j.ejmech.2021.113389

$$$$

  Mrv2316 09262419122D          

 44 50  0  0  0  0            999 V2000
    5.6424   -0.1271    0.0000 C   0  0  0  0  0  0  0  0  0  0  0  0
    4.9279   -0.5396    0.0000 O   0  0  0  0  0  0  0  0  0  0  0  0
    4.2135   -0.1271    0.0000 C   0  0  0  0  0  0  0  0  0  0  0  0
    3.4990   -0.5396    0.0000 C   0  0  0  0  0  0  0  0  0  0  0  0
    2.7845   -0.1271    0.0000 C   0  0  0  0  0  0  0  0  0  0  0  0
    2.7845    0.6979    0.0000 C   0  0  0  0  0  0  0  0  0  0  0  0
    3.4990    1.1104    0.0000 C   0  0  0  0  0  0  0  0  0  0  0  0
    4.2135    0.6979    0.0000 C   0  0  0  0  0  0  0  0  0  0  0  0
    2.0701    1.1104    0.0000 C   0  0  0  0  0  0  0  0  0  0  0  0
    1.3556    0.6979    0.0000 N   0  0  0  0  0  0  0  0  0  0  0  0
    0.6411    1.1104    0.0000 C   0  0  0  0  0  0  0  0  0  0  0  0
   -0.1435    0.8555    0.0000 N   0  0  0  0  0  0  0  0  0  0  0  0
   -0.6284    1.5229    0.0000 N   0  0  0  0  0  0  0  0  0  0  0  0
   -0.1435    2.1904    0.0000 C   0  0  0  0  0  0  0  0  0  0  0  0
   -0.3984    2.9750    0.0000 C   0  0  0  0  0  0  0  0  0  0  0  0
   -1.2054    3.1465    0.0000 C   0  0  0  0  0  0  0  0  0  0  0  0
   -1.4604    3.9312    0.0000 C   0  0  0  0  0  0  0  0  0  0  0  0
   -0.9083    4.5442    0.0000 C   0  0  0  0  0  0  0  0  0  0  0  0
   -0.1014    4.3727    0.0000 C   0  0  0  0  0  0  0  0  0  0  0  0
    0.1536    3.5881    0.0000 C   0  0  0  0  0  0  0  0  0  0  0  0
    0.6411    1.9354    0.0000 C   0  0  0  0  0  0  0  0  0  0  0  0
    1.3556    2.3479    0.0000 C   0  0  0  0  0  0  0  0  0  0  0  0
    1.3556    3.1729    0.0000 C   0  0  0  0  0  0  0  0  0  0  0  0
    0.6411    3.5854    0.0000 C   0  0  0  0  0  0  0  0  0  0  0  0
    0.6411    4.4104    0.0000 C   0  0  0  0  0  0  0  0  0  0  0  0
    1.3556    4.8229    0.0000 C   0  0  0  0  0  0  0  0  0  0  0  0
    2.0701    4.4104    0.0000 C   0  0  0  0  0  0  0  0  0  0  0  0
    2.0701    3.5854    0.0000 C   0  0  0  0  0  0  0  0  0  0  0  0
    1.3556    5.6479    0.0000 N   0  0  0  0  0  0  0  0  0  0  0  0
    0.6411    6.0604    0.0000 C   0  0  0  0  0  0  0  0  0  0  0  0
    0.6411    6.8854    0.0000 C   0  0  0  0  0  0  0  0  0  0  0  0
    1.3556    7.2979    0.0000 N   0  0  0  0  0  0  0  0  0  0  0  0
    1.3556    8.1229    0.0000 C   0  0  0  0  0  0  0  0  0  0  0  0
    2.0701    6.8854    0.0000 C   0  0  0  0  0  0  0  0  0  0  0  0
    2.0701    6.0604    0.0000 C   0  0  0  0  0  0  0  0  0  0  0  0
    2.0701    1.9354    0.0000 C   0  0  0  0  0  0  0  0  0  0  0  0
    2.7845    2.3479    0.0000 C   0  0  0  0  0  0  0  0  0  0  0  0
    3.4990    2.7604    0.0000 N   0  0  0  0  0  0  0  0  0  0  0  0
   -0.3984    0.0709    0.0000 C   0  0  0  0  0  0  0  0  0  0  0  0
    0.1536   -0.5422    0.0000 C   0  0  0  0  0  0  0  0  0  0  0  0
   -0.1014   -1.3268    0.0000 C   0  0  0  0  0  0  0  0  0  0  0  0
   -0.9083   -1.4984    0.0000 C   0  0  0  0  0  0  0  0  0  0  0  0
   -1.4604   -0.8853    0.0000 C   0  0  0  0  0  0  0  0  0  0  0  0
   -1.2054   -0.1006    0.0000 C   0  0  0  0  0  0  0  0  0  0  0  0
  1  2  1  0  0  0  0
  2  3  1  0  0  0  0
  3  4  4  0  0  0  0
  4  5  4  0  0  0  0
  5  6  4  0  0  0  0
  6  7  4  0  0  0  0
  7  8  4  0  0  0  0
  3  8  4  0  0  0  0
  6  9  1  0  0  0  0
  9 10  4  0  0  0  0
 10 11  4  0  0  0  0
 11 12  4  0  0  0  0
 12 13  4  0  0  0  0
 13 14  4  0  0  0  0
 14 15  1  0  0  0  0
 15 16  4  0  0  0  0
 16 17  4  0  0  0  0
 17 18  4  0  0  0  0
 18 19  4  0  0  0  0
 19 20  4  0  0  0  0
 15 20  4  0  0  0  0
 14 21  4  0  0  0  0
 11 21  4  0  0  0  0
 21 22  4  0  0  0  0
 22 23  1  0  0  0  0
 23 24  4  0  0  0  0
 24 25  4  0  0  0  0
 25 26  4  0  0  0  0
 26 27  4  0  0  0  0
 27 28  4  0  0  0  0
 23 28  4  0  0  0  0
 26 29  1  0  0  0  0
 29 30  1  0  0  0  0
 30 31  1  0  0  0  0
 31 32  1  0  0  0  0
 32 33  1  0  0  0  0
 32 34  1  0  0  0  0
 34 35  1  0  0  0  0
 29 35  1  0  0  0  0
 22 36  4  0  0  0  0
  9 36  4  0  0  0  0
 36 37  1  0  0  0  0
 37 38  3  0  0  0  0
 12 39  1  0  0  0  0
 39 40  4  0  0  0  0
 40 41  4  0  0  0  0
 41 42  4  0  0  0  0
 42 43  4  0  0  0  0
 43 44  4  0  0  0  0
 39 44  4  0  0  0  0
M  END
> <BindingDB_ID/CHEMBL_ID>
50567666

> <pKi>
7.4

> <Target Name>
Cyclin-A2/Cyclin-dependent kinase 2

> <Target Source Organism>
Homo sapiens

> <Target Uniprot>
P24941

> <Article DOI>
10.1016/j.ejmech.2021.113389

$$$$

  Mrv2316 09262419122D          

 29 32  0  0  0  0            999 V2000
    0.8212   -3.7741    0.0000 C   0  0  0  0  0  0  0  0  0  0  0  0
    0.1067   -4.1866    0.0000 N   0  0  0  0  0  0  0  0  0  0  0  0
    0.1067   -5.0116    0.0000 C   0  0  0  0  0  0  0  0  0  0  0  0
    0.7741   -5.4965    0.0000 N   0  0  0  0  0  0  0  0  0  0  0  0
    0.5192   -6.2812    0.0000 C   0  0  0  0  0  0  0  0  0  0  0  0
    1.0041   -6.9486    0.0000 C   0  0  0  0  0  0  0  0  0  0  0  0
   -0.3058   -6.2812    0.0000 C   0  0  0  0  0  0  0  0  0  0  0  0
   -0.5607   -5.4965    0.0000 S   0  0  0  0  0  0  0  0  0  0  0  0
   -0.7907   -6.9486    0.0000 C   0  0  0  0  0  0  0  0  0  0  0  0
   -0.4552   -7.7023    0.0000 N   0  0  0  0  0  0  0  0  0  0  0  0
   -0.9401   -8.3697    0.0000 C   0  0  0  0  0  0  0  0  0  0  0  0
   -0.6045   -9.1234    0.0000 N   0  0  0  0  0  0  0  0  0  0  0  0
    0.2160   -9.2096    0.0000 C   0  0  0  0  0  0  0  0  0  0  0  0
    0.7009   -8.5422    0.0000 C   0  0  0  0  0  0  0  0  0  0  0  0
    1.5214   -8.6284    0.0000 C   0  0  0  0  0  0  0  0  0  0  0  0
    1.8569   -9.3821    0.0000 C   0  0  0  0  0  0  0  0  0  0  0  0
    1.3720  -10.0495    0.0000 C   0  0  0  0  0  0  0  0  0  0  0  0
    0.5515   -9.9633    0.0000 C   0  0  0  0  0  0  0  0  0  0  0  0
    1.7076  -10.8032    0.0000 N   0  0  0  0  0  0  0  0  0  0  0  0
    2.5280  -10.8894    0.0000 C   0  0  0  0  0  0  0  0  0  0  0  0
    2.8636  -11.6431    0.0000 C   0  0  0  0  0  0  0  0  0  0  0  0
    2.3787  -12.3106    0.0000 N   0  0  0  0  0  0  0  0  0  0  0  0
    2.7142  -13.0642    0.0000 C   0  0  0  0  0  0  0  0  0  0  0  0
    1.5582  -12.2243    0.0000 C   0  0  0  0  0  0  0  0  0  0  0  0
    1.2226  -11.4706    0.0000 C   0  0  0  0  0  0  0  0  0  0  0  0
   -1.7606   -8.2835    0.0000 N   0  0  0  0  0  0  0  0  0  0  0  0
   -2.0961   -7.5298    0.0000 C   0  0  0  0  0  0  0  0  0  0  0  0
   -1.6112   -6.8624    0.0000 C   0  0  0  0  0  0  0  0  0  0  0  0
   -1.9468   -6.1087    0.0000 Cl  0  0  0  0  0  0  0  0  0  0  0  0
  1  2  1  0  0  0  0
  2  3  1  0  0  0  0
  3  4  4  0  0  0  0
  4  5  4  0  0  0  0
  5  6  1  0  0  0  0
  5  7  4  0  0  0  0
  7  8  4  0  0  0  0
  3  8  4  0  0  0  0
  7  9  1  0  0  0  0
  9 10  4  0  0  0  0
 10 11  4  0  0  0  0
 11 12  1  0  0  0  0
 12 13  1  0  0  0  0
 13 14  4  0  0  0  0
 14 15  4  0  0  0  0
 15 16  4  0  0  0  0
 16 17  4  0  0  0  0
 17 18  4  0  0  0  0
 13 18  4  0  0  0  0
 17 19  1  0  0  0  0
 19 20  1  0  0  0  0
 20 21  1  0  0  0  0
 21 22  1  0  0  0  0
 22 23  1  0  0  0  0
 22 24  1  0  0  0  0
 24 25  1  0  0  0  0
 19 25  1  0  0  0  0
 11 26  4  0  0  0  0
 26 27  4  0  0  0  0
 27 28  4  0  0  0  0
  9 28  4  0  0  0  0
 28 29  1  0  0  0  0
M  END
> <BindingDB_ID/CHEMBL_ID>
50570294

> <pKi>
7.0

> <Target Name>
Cyclin-A2/Cyclin-dependent kinase 2

> <Target Source Organism>
Homo sapiens

> <Target Uniprot>
P24941

> <Article DOI>
10.1016/j.ejmech.2021.113244

$$$$

  Mrv2316 09262419122D          

 28 31  0  0  0  0            999 V2000
    0.8212   -3.7741    0.0000 C   0  0  0  0  0  0  0  0  0  0  0  0
    0.1067   -4.1866    0.0000 N   0  0  0  0  0  0  0  0  0  0  0  0
    0.1067   -5.0116    0.0000 C   0  0  0  0  0  0  0  0  0  0  0  0
    0.7741   -5.4965    0.0000 N   0  0  0  0  0  0  0  0  0  0  0  0
    0.5192   -6.2812    0.0000 C   0  0  0  0  0  0  0  0  0  0  0  0
    1.0041   -6.9486    0.0000 C   0  0  0  0  0  0  0  0  0  0  0  0
   -0.3058   -6.2812    0.0000 C   0  0  0  0  0  0  0  0  0  0  0  0
   -0.5607   -5.4965    0.0000 S   0  0  0  0  0  0  0  0  0  0  0  0
   -0.7907   -6.9486    0.0000 C   0  0  0  0  0  0  0  0  0  0  0  0
   -0.4552   -7.7023    0.0000 N   0  0  0  0  0  0  0  0  0  0  0  0
   -0.9401   -8.3697    0.0000 C   0  0  0  0  0  0  0  0  0  0  0  0
   -0.6045   -9.1234    0.0000 N   0  0  0  0  0  0  0  0  0  0  0  0
    0.2160   -9.2096    0.0000 C   0  0  0  0  0  0  0  0  0  0  0  0
    0.7009   -8.5422    0.0000 C   0  0  0  0  0  0  0  0  0  0  0  0
    1.5214   -8.6284    0.0000 C   0  0  0  0  0  0  0  0  0  0  0  0
    1.8569   -9.3821    0.0000 C   0  0  0  0  0  0  0  0  0  0  0  0
    1.3720  -10.0495    0.0000 C   0  0  0  0  0  0  0  0  0  0  0  0
    0.5515   -9.9633    0.0000 C   0  0  0  0  0  0  0  0  0  0  0  0
    1.7076  -10.8032    0.0000 N   0  0  0  0  0  0  0  0  0  0  0  0
    2.5280  -10.8894    0.0000 C   0  0  0  0  0  0  0  0  0  0  0  0
    2.8636  -11.6431    0.0000 C   0  0  0  0  0  0  0  0  0  0  0  0
    2.3787  -12.3106    0.0000 O   0  0  0  0  0  0  0  0  0  0  0  0
    1.5582  -12.2243    0.0000 C   0  0  0  0  0  0  0  0  0  0  0  0
    1.2226  -11.4706    0.0000 C   0  0  0  0  0  0  0  0  0  0  0  0
   -1.7606   -8.2835    0.0000 N   0  0  0  0  0  0  0  0  0  0  0  0
   -2.0961   -7.5298    0.0000 C   0  0  0  0  0  0  0  0  0  0  0  0
   -1.6112   -6.8624    0.0000 C   0  0  0  0  0  0  0  0  0  0  0  0
   -1.9468   -6.1087    0.0000 Cl  0  0  0  0  0  0  0  0  0  0  0  0
  1  2  1  0  0  0  0
  2  3  1  0  0  0  0
  3  4  4  0  0  0  0
  4  5  4  0  0  0  0
  5  6  1  0  0  0  0
  5  7  4  0  0  0  0
  7  8  4  0  0  0  0
  3  8  4  0  0  0  0
  7  9  1  0  0  0  0
  9 10  4  0  0  0  0
 10 11  4  0  0  0  0
 11 12  1  0  0  0  0
 12 13  1  0  0  0  0
 13 14  4  0  0  0  0
 14 15  4  0  0  0  0
 15 16  4  0  0  0  0
 16 17  4  0  0  0  0
 17 18  4  0  0  0  0
 13 18  4  0  0  0  0
 17 19  1  0  0  0  0
 19 20  1  0  0  0  0
 20 21  1  0  0  0  0
 21 22  1  0  0  0  0
 22 23  1  0  0  0  0
 23 24  1  0  0  0  0
 19 24  1  0  0  0  0
 11 25  4  0  0  0  0
 25 26  4  0  0  0  0
 26 27  4  0  0  0  0
  9 27  4  0  0  0  0
 27 28  1  0  0  0  0
M  END
> <BindingDB_ID/CHEMBL_ID>
50570295

> <pKi>
7.7

> <Target Name>
Cyclin-A2/Cyclin-dependent kinase 2

> <Target Source Organism>
Homo sapiens

> <Target Uniprot>
P24941

> <Article DOI>
10.1016/j.ejmech.2021.113244

$$$$

  Mrv2316 09262419122D          

 28 31  0  0  0  0            999 V2000
    0.8212   -3.7741    0.0000 C   0  0  0  0  0  0  0  0  0  0  0  0
    0.1067   -4.1866    0.0000 N   0  0  0  0  0  0  0  0  0  0  0  0
    0.1067   -5.0116    0.0000 C   0  0  0  0  0  0  0  0  0  0  0  0
    0.7741   -5.4965    0.0000 N   0  0  0  0  0  0  0  0  0  0  0  0
    0.5192   -6.2812    0.0000 C   0  0  0  0  0  0  0  0  0  0  0  0
    1.0041   -6.9486    0.0000 C   0  0  0  0  0  0  0  0  0  0  0  0
   -0.3058   -6.2812    0.0000 C   0  0  0  0  0  0  0  0  0  0  0  0
   -0.5607   -5.4965    0.0000 S   0  0  0  0  0  0  0  0  0  0  0  0
   -0.7907   -6.9486    0.0000 C   0  0  0  0  0  0  0  0  0  0  0  0
   -0.4552   -7.7023    0.0000 N   0  0  0  0  0  0  0  0  0  0  0  0
   -0.9401   -8.3697    0.0000 C   0  0  0  0  0  0  0  0  0  0  0  0
   -0.6045   -9.1234    0.0000 N   0  0  0  0  0  0  0  0  0  0  0  0
    0.2160   -9.2096    0.0000 C   0  0  0  0  0  0  0  0  0  0  0  0
    0.7009   -8.5422    0.0000 C   0  0  0  0  0  0  0  0  0  0  0  0
    1.5214   -8.6284    0.0000 C   0  0  0  0  0  0  0  0  0  0  0  0
    1.8569   -9.3821    0.0000 C   0  0  0  0  0  0  0  0  0  0  0  0
    1.3720  -10.0495    0.0000 C   0  0  0  0  0  0  0  0  0  0  0  0
    0.5515   -9.9633    0.0000 C   0  0  0  0  0  0  0  0  0  0  0  0
    1.7076  -10.8032    0.0000 N   0  0  0  0  0  0  0  0  0  0  0  0
    2.5280  -10.8894    0.0000 C   0  0  0  0  0  0  0  0  0  0  0  0
    2.8636  -11.6431    0.0000 C   0  0  0  0  0  0  0  0  0  0  0  0
    2.3787  -12.3106    0.0000 O   0  0  0  0  0  0  0  0  0  0  0  0
    1.5582  -12.2243    0.0000 C   0  0  0  0  0  0  0  0  0  0  0  0
    1.2226  -11.4706    0.0000 C   0  0  0  0  0  0  0  0  0  0  0  0
   -1.7606   -8.2835    0.0000 N   0  0  0  0  0  0  0  0  0  0  0  0
   -2.0961   -7.5298    0.0000 C   0  0  0  0  0  0  0  0  0  0  0  0
   -1.6112   -6.8624    0.0000 C   0  0  0  0  0  0  0  0  0  0  0  0
   -1.9468   -6.1087    0.0000 C   0  0  0  0  0  0  0  0  0  0  0  0
  1  2  1  0  0  0  0
  2  3  1  0  0  0  0
  3  4  4  0  0  0  0
  4  5  4  0  0  0  0
  5  6  1  0  0  0  0
  5  7  4  0  0  0  0
  7  8  4  0  0  0  0
  3  8  4  0  0  0  0
  7  9  1  0  0  0  0
  9 10  4  0  0  0  0
 10 11  4  0  0  0  0
 11 12  1  0  0  0  0
 12 13  1  0  0  0  0
 13 14  4  0  0  0  0
 14 15  4  0  0  0  0
 15 16  4  0  0  0  0
 16 17  4  0  0  0  0
 17 18  4  0  0  0  0
 13 18  4  0  0  0  0
 17 19  1  0  0  0  0
 19 20  1  0  0  0  0
 20 21  1  0  0  0  0
 21 22  1  0  0  0  0
 22 23  1  0  0  0  0
 23 24  1  0  0  0  0
 19 24  1  0  0  0  0
 11 25  4  0  0  0  0
 25 26  4  0  0  0  0
 26 27  4  0  0  0  0
  9 27  4  0  0  0  0
 27 28  1  0  0  0  0
M  END
> <BindingDB_ID/CHEMBL_ID>
50570296

> <pKi>
6.4

> <Target Name>
Cyclin-A2/Cyclin-dependent kinase 2

> <Target Source Organism>
Homo sapiens

> <Target Uniprot>
P24941

> <Article DOI>
10.1016/j.ejmech.2021.113244

$$$$

  Mrv2316 09262419122D          

 31 34  0  0  0  0            999 V2000
    0.8212   -3.7741    0.0000 C   0  0  0  0  0  0  0  0  0  0  0  0
    0.1067   -4.1866    0.0000 N   0  0  0  0  0  0  0  0  0  0  0  0
    0.1067   -5.0116    0.0000 C   0  0  0  0  0  0  0  0  0  0  0  0
    0.7741   -5.4965    0.0000 N   0  0  0  0  0  0  0  0  0  0  0  0
    0.5192   -6.2812    0.0000 C   0  0  0  0  0  0  0  0  0  0  0  0
    1.0041   -6.9486    0.0000 C   0  0  0  0  0  0  0  0  0  0  0  0
   -0.3058   -6.2812    0.0000 C   0  0  0  0  0  0  0  0  0  0  0  0
   -0.5607   -5.4965    0.0000 S   0  0  0  0  0  0  0  0  0  0  0  0
   -0.7907   -6.9486    0.0000 C   0  0  0  0  0  0  0  0  0  0  0  0
   -0.4552   -7.7023    0.0000 N   0  0  0  0  0  0  0  0  0  0  0  0
   -0.9401   -8.3697    0.0000 C   0  0  0  0  0  0  0  0  0  0  0  0
   -0.6045   -9.1234    0.0000 N   0  0  0  0  0  0  0  0  0  0  0  0
    0.2160   -9.2096    0.0000 C   0  0  0  0  0  0  0  0  0  0  0  0
    0.7009   -8.5422    0.0000 C   0  0  0  0  0  0  0  0  0  0  0  0
    1.5214   -8.6284    0.0000 C   0  0  0  0  0  0  0  0  0  0  0  0
    1.8569   -9.3821    0.0000 C   0  0  0  0  0  0  0  0  0  0  0  0
    1.3720  -10.0495    0.0000 C   0  0  0  0  0  0  0  0  0  0  0  0
    0.5515   -9.9633    0.0000 C   0  0  0  0  0  0  0  0  0  0  0  0
    1.7076  -10.8032    0.0000 N   0  0  0  0  0  0  0  0  0  0  0  0
    2.5280  -10.8894    0.0000 C   0  0  0  0  0  0  0  0  0  0  0  0
    2.8636  -11.6431    0.0000 C   0  0  0  0  0  0  0  0  0  0  0  0
    2.3787  -12.3106    0.0000 N   0  0  0  0  0  0  0  0  0  0  0  0
    1.5582  -12.2243    0.0000 C   0  0  0  0  0  0  0  0  0  0  0  0
    1.2226  -11.4706    0.0000 C   0  0  0  0  0  0  0  0  0  0  0  0
    2.7142  -13.0642    0.0000 C   0  0  0  0  0  0  0  0  0  0  0  0
    3.5347  -13.1505    0.0000 C   0  0  0  0  0  0  0  0  0  0  0  0
    2.2293  -13.7317    0.0000 O   0  0  0  0  0  0  0  0  0  0  0  0
   -1.7606   -8.2835    0.0000 N   0  0  0  0  0  0  0  0  0  0  0  0
   -2.0961   -7.5298    0.0000 C   0  0  0  0  0  0  0  0  0  0  0  0
   -1.6112   -6.8624    0.0000 C   0  0  0  0  0  0  0  0  0  0  0  0
   -1.9468   -6.1087    0.0000 C   0  0  0  0  0  0  0  0  0  0  0  0
  1  2  1  0  0  0  0
  2  3  1  0  0  0  0
  3  4  4  0  0  0  0
  4  5  4  0  0  0  0
  5  6  1  0  0  0  0
  5  7  4  0  0  0  0
  7  8  4  0  0  0  0
  3  8  4  0  0  0  0
  7  9  1  0  0  0  0
  9 10  4  0  0  0  0
 10 11  4  0  0  0  0
 11 12  1  0  0  0  0
 12 13  1  0  0  0  0
 13 14  4  0  0  0  0
 14 15  4  0  0  0  0
 15 16  4  0  0  0  0
 16 17  4  0  0  0  0
 17 18  4  0  0  0  0
 13 18  4  0  0  0  0
 17 19  1  0  0  0  0
 19 20  1  0  0  0  0
 20 21  1  0  0  0  0
 21 22  1  0  0  0  0
 22 23  1  0  0  0  0
 23 24  1  0  0  0  0
 19 24  1  0  0  0  0
 22 25  1  0  0  0  0
 25 26  1  0  0  0  0
 25 27  2  0  0  0  0
 11 28  4  0  0  0  0
 28 29  4  0  0  0  0
 29 30  4  0  0  0  0
  9 30  4  0  0  0  0
 30 31  1  0  0  0  0
M  END
> <BindingDB_ID/CHEMBL_ID>
50570297

> <pKi>
6.1

> <Target Name>
Cyclin-A2/Cyclin-dependent kinase 2

> <Target Source Organism>
Homo sapiens

> <Target Uniprot>
P24941

> <Article DOI>
10.1016/j.ejmech.2021.113244

$$$$

  Mrv2316 09262419122D          

 30 34  0  0  0  0            999 V2000
   -2.8725   -6.4092    0.0000 C   0  0  0  0  0  0  0  0  0  0  0  0
   -3.2625   -5.6822    0.0000 C   0  0  0  0  0  0  0  0  0  0  0  0
   -4.0871   -5.6564    0.0000 O   0  0  0  0  0  0  0  0  0  0  0  0
   -2.8279   -4.9809    0.0000 N   0  0  0  0  0  0  0  0  0  0  0  0
   -3.2179   -4.2539    0.0000 C   0  0  0  0  0  0  0  0  0  0  0  0
   -2.7833   -3.5527    0.0000 C   0  0  0  0  0  0  0  0  0  0  0  0
   -1.9587   -3.5784    0.0000 N   0  0  0  0  0  0  0  0  0  0  0  0
   -1.5687   -4.3054    0.0000 C   0  0  0  0  0  0  0  0  0  0  0  0
   -2.0033   -5.0067    0.0000 C   0  0  0  0  0  0  0  0  0  0  0  0
   -1.5241   -2.8772    0.0000 C   0  0  0  0  0  0  0  0  0  0  0  0
   -1.9141   -2.1502    0.0000 C   0  0  0  0  0  0  0  0  0  0  0  0
   -1.4795   -1.4490    0.0000 C   0  0  0  0  0  0  0  0  0  0  0  0
   -0.6549   -1.4747    0.0000 C   0  0  0  0  0  0  0  0  0  0  0  0
   -0.2649   -2.2017    0.0000 C   0  0  0  0  0  0  0  0  0  0  0  0
    0.5597   -2.2275    0.0000 N   0  0  0  0  0  0  0  0  0  0  0  0
    0.9943   -1.5262    0.0000 C   0  0  0  0  0  0  0  0  0  0  0  0
    0.6043   -0.7992    0.0000 N   0  0  0  0  0  0  0  0  0  0  0  0
    1.0390   -0.0980    0.0000 C   0  0  0  0  0  0  0  0  0  0  0  0
    1.8636   -0.1238    0.0000 C   0  0  0  0  0  0  0  0  0  0  0  0
    2.2982    0.5775    0.0000 C   0  0  0  0  0  0  0  0  0  0  0  0
    3.1228    0.5517    0.0000 C   0  0  0  0  0  0  0  0  0  0  0  0
    3.5127   -0.1753    0.0000 C   0  0  0  0  0  0  0  0  0  0  0  0
    4.3140   -0.3719    0.0000 N   0  0  0  0  0  0  0  0  0  0  0  0
    4.3745   -1.1947    0.0000 C   0  0  0  0  0  0  0  0  0  0  0  0
    5.0758   -1.6293    0.0000 N   0  0  0  0  0  0  0  0  0  0  0  0
    3.6108   -1.5066    0.0000 S   0  0  0  0  0  0  0  0  0  0  0  0
    3.0781   -0.8765    0.0000 C   0  0  0  0  0  0  0  0  0  0  0  0
    2.2535   -0.8508    0.0000 C   0  0  0  0  0  0  0  0  0  0  0  0
    1.8189   -1.5520    0.0000 N   0  0  0  0  0  0  0  0  0  0  0  0
   -0.6995   -2.9030    0.0000 C   0  0  0  0  0  0  0  0  0  0  0  0
  1  2  1  0  0  0  0
  2  3  2  0  0  0  0
  2  4  1  0  0  0  0
  4  5  1  0  0  0  0
  5  6  1  0  0  0  0
  6  7  1  0  0  0  0
  7  8  1  0  0  0  0
  8  9  1  0  0  0  0
  4  9  1  0  0  0  0
  7 10  1  0  0  0  0
 10 11  4  0  0  0  0
 11 12  4  0  0  0  0
 12 13  4  0  0  0  0
 13 14  4  0  0  0  0
 14 15  1  0  0  0  0
 15 16  1  0  0  0  0
 16 17  4  0  0  0  0
 17 18  4  0  0  0  0
 18 19  4  0  0  0  0
 19 20  1  0  0  0  0
 20 21  1  0  0  0  0
 21 22  1  0  0  0  0
 22 23  4  0  0  0  0
 23 24  4  0  0  0  0
 24 25  1  0  0  0  0
 24 26  4  0  0  0  0
 26 27  4  0  0  0  0
 22 27  4  0  0  0  0
 27 28  1  0  0  0  0
 19 28  4  0  0  0  0
 28 29  4  0  0  0  0
 16 29  4  0  0  0  0
 14 30  4  0  0  0  0
 10 30  4  0  0  0  0
M  END
> <BindingDB_ID/CHEMBL_ID>
50570298

> <pKi>
7.1

> <Target Name>
Cyclin-A2/Cyclin-dependent kinase 2

> <Target Source Organism>
Homo sapiens

> <Target Uniprot>
P24941

> <Article DOI>
10.1016/j.ejmech.2021.113244

$$$$

  Mrv2316 09262419122D          

 28 31  0  0  0  0            999 V2000
    0.8212   -3.7741    0.0000 C   0  0  0  0  0  0  0  0  0  0  0  0
    0.1067   -4.1866    0.0000 N   0  0  0  0  0  0  0  0  0  0  0  0
    0.1067   -5.0116    0.0000 C   0  0  0  0  0  0  0  0  0  0  0  0
    0.7741   -5.4965    0.0000 N   0  0  0  0  0  0  0  0  0  0  0  0
    0.5192   -6.2812    0.0000 C   0  0  0  0  0  0  0  0  0  0  0  0
    1.0041   -6.9486    0.0000 C   0  0  0  0  0  0  0  0  0  0  0  0
   -0.3058   -6.2812    0.0000 C   0  0  0  0  0  0  0  0  0  0  0  0
   -0.5607   -5.4965    0.0000 S   0  0  0  0  0  0  0  0  0  0  0  0
   -0.7907   -6.9486    0.0000 C   0  0  0  0  0  0  0  0  0  0  0  0
   -0.4552   -7.7023    0.0000 N   0  0  0  0  0  0  0  0  0  0  0  0
   -0.9401   -8.3697    0.0000 C   0  0  0  0  0  0  0  0  0  0  0  0
   -0.6045   -9.1234    0.0000 N   0  0  0  0  0  0  0  0  0  0  0  0
    0.2160   -9.2096    0.0000 C   0  0  0  0  0  0  0  0  0  0  0  0
    0.7009   -8.5422    0.0000 C   0  0  0  0  0  0  0  0  0  0  0  0
    1.5214   -8.6284    0.0000 C   0  0  0  0  0  0  0  0  0  0  0  0
    1.8569   -9.3821    0.0000 C   0  0  0  0  0  0  0  0  0  0  0  0
    1.3720  -10.0495    0.0000 C   0  0  0  0  0  0  0  0  0  0  0  0
    0.5515   -9.9633    0.0000 C   0  0  0  0  0  0  0  0  0  0  0  0
    1.7076  -10.8032    0.0000 N   0  0  0  0  0  0  0  0  0  0  0  0
    2.5280  -10.8894    0.0000 C   0  0  0  0  0  0  0  0  0  0  0  0
    2.8636  -11.6431    0.0000 C   0  0  0  0  0  0  0  0  0  0  0  0
    2.3787  -12.3106    0.0000 N   0  0  0  0  0  0  0  0  0  0  0  0
    1.5582  -12.2243    0.0000 C   0  0  0  0  0  0  0  0  0  0  0  0
    1.2226  -11.4706    0.0000 C   0  0  0  0  0  0  0  0  0  0  0  0
   -1.7606   -8.2835    0.0000 N   0  0  0  0  0  0  0  0  0  0  0  0
   -2.0961   -7.5298    0.0000 C   0  0  0  0  0  0  0  0  0  0  0  0
   -1.6112   -6.8624    0.0000 C   0  0  0  0  0  0  0  0  0  0  0  0
   -1.9468   -6.1087    0.0000 C   0  0  0  0  0  0  0  0  0  0  0  0
  1  2  1  0  0  0  0
  2  3  1  0  0  0  0
  3  4  4  0  0  0  0
  4  5  4  0  0  0  0
  5  6  1  0  0  0  0
  5  7  4  0  0  0  0
  7  8  4  0  0  0  0
  3  8  4  0  0  0  0
  7  9  1  0  0  0  0
  9 10  4  0  0  0  0
 10 11  4  0  0  0  0
 11 12  1  0  0  0  0
 12 13  1  0  0  0  0
 13 14  4  0  0  0  0
 14 15  4  0  0  0  0
 15 16  4  0  0  0  0
 16 17  4  0  0  0  0
 17 18  4  0  0  0  0
 13 18  4  0  0  0  0
 17 19  1  0  0  0  0
 19 20  1  0  0  0  0
 20 21  1  0  0  0  0
 21 22  1  0  0  0  0
 22 23  1  0  0  0  0
 23 24  1  0  0  0  0
 19 24  1  0  0  0  0
 11 25  4  0  0  0  0
 25 26  4  0  0  0  0
 26 27  4  0  0  0  0
  9 27  4  0  0  0  0
 27 28  1  0  0  0  0
M  END
> <BindingDB_ID/CHEMBL_ID>
50570299

> <pKi>
6.1

> <Target Name>
Cyclin-A2/Cyclin-dependent kinase 2

> <Target Source Organism>
Homo sapiens

> <Target Uniprot>
P24941

> <Article DOI>
10.1016/j.ejmech.2021.113244

$$$$

  Mrv2316 09262419122D          

 29 32  0  0  0  0            999 V2000
    0.8212   -3.7741    0.0000 C   0  0  0  0  0  0  0  0  0  0  0  0
    0.1067   -4.1866    0.0000 N   0  0  0  0  0  0  0  0  0  0  0  0
    0.1067   -5.0116    0.0000 C   0  0  0  0  0  0  0  0  0  0  0  0
    0.7741   -5.4965    0.0000 N   0  0  0  0  0  0  0  0  0  0  0  0
    0.5192   -6.2812    0.0000 C   0  0  0  0  0  0  0  0  0  0  0  0
    1.0041   -6.9486    0.0000 C   0  0  0  0  0  0  0  0  0  0  0  0
   -0.3058   -6.2812    0.0000 C   0  0  0  0  0  0  0  0  0  0  0  0
   -0.5607   -5.4965    0.0000 S   0  0  0  0  0  0  0  0  0  0  0  0
   -0.7907   -6.9486    0.0000 C   0  0  0  0  0  0  0  0  0  0  0  0
   -0.4552   -7.7023    0.0000 N   0  0  0  0  0  0  0  0  0  0  0  0
   -0.9401   -8.3697    0.0000 C   0  0  0  0  0  0  0  0  0  0  0  0
   -0.6045   -9.1234    0.0000 N   0  0  0  0  0  0  0  0  0  0  0  0
    0.2160   -9.2096    0.0000 C   0  0  0  0  0  0  0  0  0  0  0  0
    0.7009   -8.5422    0.0000 C   0  0  0  0  0  0  0  0  0  0  0  0
    1.5214   -8.6284    0.0000 C   0  0  0  0  0  0  0  0  0  0  0  0
    1.8569   -9.3821    0.0000 C   0  0  0  0  0  0  0  0  0  0  0  0
    1.3720  -10.0495    0.0000 C   0  0  0  0  0  0  0  0  0  0  0  0
    0.5515   -9.9633    0.0000 C   0  0  0  0  0  0  0  0  0  0  0  0
    1.7076  -10.8032    0.0000 N   0  0  0  0  0  0  0  0  0  0  0  0
    2.5280  -10.8894    0.0000 C   0  0  0  0  0  0  0  0  0  0  0  0
    2.8636  -11.6431    0.0000 C   0  0  0  0  0  0  0  0  0  0  0  0
    2.3787  -12.3106    0.0000 N   0  0  0  0  0  0  0  0  0  0  0  0
    2.7142  -13.0642    0.0000 C   0  0  0  0  0  0  0  0  0  0  0  0
    1.5582  -12.2243    0.0000 C   0  0  0  0  0  0  0  0  0  0  0  0
    1.2226  -11.4706    0.0000 C   0  0  0  0  0  0  0  0  0  0  0  0
   -1.7606   -8.2835    0.0000 N   0  0  0  0  0  0  0  0  0  0  0  0
   -2.0961   -7.5298    0.0000 C   0  0  0  0  0  0  0  0  0  0  0  0
   -1.6112   -6.8624    0.0000 C   0  0  0  0  0  0  0  0  0  0  0  0
   -1.9468   -6.1087    0.0000 C   0  0  0  0  0  0  0  0  0  0  0  0
  1  2  1  0  0  0  0
  2  3  1  0  0  0  0
  3  4  4  0  0  0  0
  4  5  4  0  0  0  0
  5  6  1  0  0  0  0
  5  7  4  0  0  0  0
  7  8  4  0  0  0  0
  3  8  4  0  0  0  0
  7  9  1  0  0  0  0
  9 10  4  0  0  0  0
 10 11  4  0  0  0  0
 11 12  1  0  0  0  0
 12 13  1  0  0  0  0
 13 14  4  0  0  0  0
 14 15  4  0  0  0  0
 15 16  4  0  0  0  0
 16 17  4  0  0  0  0
 17 18  4  0  0  0  0
 13 18  4  0  0  0  0
 17 19  1  0  0  0  0
 19 20  1  0  0  0  0
 20 21  1  0  0  0  0
 21 22  1  0  0  0  0
 22 23  1  0  0  0  0
 22 24  1  0  0  0  0
 24 25  1  0  0  0  0
 19 25  1  0  0  0  0
 11 26  4  0  0  0  0
 26 27  4  0  0  0  0
 27 28  4  0  0  0  0
  9 28  4  0  0  0  0
 28 29  1  0  0  0  0
M  END
> <BindingDB_ID/CHEMBL_ID>
50570300

> <pKi>
6.2

> <Target Name>
Cyclin-A2/Cyclin-dependent kinase 2

> <Target Source Organism>
Homo sapiens

> <Target Uniprot>
P24941

> <Article DOI>
10.1016/j.ejmech.2021.113244

$$$$

  Mrv2316 09262419122D          

 32 35  0  0  0  0            999 V2000
    0.8212   -3.7741    0.0000 C   0  0  0  0  0  0  0  0  0  0  0  0
    0.1067   -4.1866    0.0000 N   0  0  0  0  0  0  0  0  0  0  0  0
    0.1067   -5.0116    0.0000 C   0  0  0  0  0  0  0  0  0  0  0  0
    0.7741   -5.4965    0.0000 N   0  0  0  0  0  0  0  0  0  0  0  0
    0.5192   -6.2812    0.0000 C   0  0  0  0  0  0  0  0  0  0  0  0
    1.0041   -6.9486    0.0000 C   0  0  0  0  0  0  0  0  0  0  0  0
   -0.3058   -6.2812    0.0000 C   0  0  0  0  0  0  0  0  0  0  0  0
   -0.5607   -5.4965    0.0000 S   0  0  0  0  0  0  0  0  0  0  0  0
   -0.7907   -6.9486    0.0000 C   0  0  0  0  0  0  0  0  0  0  0  0
   -0.4552   -7.7023    0.0000 N   0  0  0  0  0  0  0  0  0  0  0  0
   -0.9401   -8.3697    0.0000 C   0  0  0  0  0  0  0  0  0  0  0  0
   -0.6045   -9.1234    0.0000 N   0  0  0  0  0  0  0  0  0  0  0  0
    0.2160   -9.2096    0.0000 C   0  0  0  0  0  0  0  0  0  0  0  0
    0.7009   -8.5422    0.0000 C   0  0  0  0  0  0  0  0  0  0  0  0
    1.5214   -8.6284    0.0000 C   0  0  0  0  0  0  0  0  0  0  0  0
    1.8569   -9.3821    0.0000 C   0  0  0  0  0  0  0  0  0  0  0  0
    1.3720  -10.0495    0.0000 C   0  0  0  0  0  0  0  0  0  0  0  0
    0.5515   -9.9633    0.0000 C   0  0  0  0  0  0  0  0  0  0  0  0
    1.7076  -10.8032    0.0000 N   0  0  0  0  0  0  0  0  0  0  0  0
    2.5280  -10.8894    0.0000 C   0  0  0  0  0  0  0  0  0  0  0  0
    2.8636  -11.6431    0.0000 C   0  0  0  0  0  0  0  0  0  0  0  0
    2.3787  -12.3106    0.0000 N   0  0  0  0  0  0  0  0  0  0  0  0
    1.5582  -12.2243    0.0000 C   0  0  0  0  0  0  0  0  0  0  0  0
    1.2226  -11.4706    0.0000 C   0  0  0  0  0  0  0  0  0  0  0  0
    2.7142  -13.0642    0.0000 S   0  0  0  0  0  0  0  0  0  0  0  0
    3.0498  -13.8179    0.0000 C   0  0  0  0  0  0  0  0  0  0  0  0
    1.9606  -13.3998    0.0000 O   0  0  0  0  0  0  0  0  0  0  0  0
    3.4679  -12.7287    0.0000 O   0  0  0  0  0  0  0  0  0  0  0  0
   -1.7606   -8.2835    0.0000 N   0  0  0  0  0  0  0  0  0  0  0  0
   -2.0961   -7.5298    0.0000 C   0  0  0  0  0  0  0  0  0  0  0  0
   -1.6112   -6.8624    0.0000 C   0  0  0  0  0  0  0  0  0  0  0  0
   -1.9468   -6.1087    0.0000 C   0  0  0  0  0  0  0  0  0  0  0  0
  1  2  1  0  0  0  0
  2  3  1  0  0  0  0
  3  4  4  0  0  0  0
  4  5  4  0  0  0  0
  5  6  1  0  0  0  0
  5  7  4  0  0  0  0
  7  8  4  0  0  0  0
  3  8  4  0  0  0  0
  7  9  1  0  0  0  0
  9 10  4  0  0  0  0
 10 11  4  0  0  0  0
 11 12  1  0  0  0  0
 12 13  1  0  0  0  0
 13 14  4  0  0  0  0
 14 15  4  0  0  0  0
 15 16  4  0  0  0  0
 16 17  4  0  0  0  0
 17 18  4  0  0  0  0
 13 18  4  0  0  0  0
 17 19  1  0  0  0  0
 19 20  1  0  0  0  0
 20 21  1  0  0  0  0
 21 22  1  0  0  0  0
 22 23  1  0  0  0  0
 23 24  1  0  0  0  0
 19 24  1  0  0  0  0
 22 25  1  0  0  0  0
 25 26  1  0  0  0  0
 25 27  2  0  0  0  0
 25 28  2  0  0  0  0
 11 29  4  0  0  0  0
 29 30  4  0  0  0  0
 30 31  4  0  0  0  0
  9 31  4  0  0  0  0
 31 32  1  0  0  0  0
M  END
> <BindingDB_ID/CHEMBL_ID>
50570301

> <pKi>
7.1

> <Target Name>
Cyclin-A2/Cyclin-dependent kinase 2

> <Target Source Organism>
Homo sapiens

> <Target Uniprot>
P24941

> <Article DOI>
10.1016/j.ejmech.2021.113244

$$$$

  Mrv2316 09262419122D          

 29 32  0  0  0  0            999 V2000
   -0.4126   -3.6078    0.0000 C   0  0  0  0  0  0  0  0  0  0  0  0
   -1.1271   -4.0203    0.0000 N   0  0  0  0  0  0  0  0  0  0  0  0
   -1.1271   -4.8453    0.0000 C   0  0  0  0  0  0  0  0  0  0  0  0
   -0.4596   -5.3303    0.0000 N   0  0  0  0  0  0  0  0  0  0  0  0
   -0.7146   -6.1149    0.0000 C   0  0  0  0  0  0  0  0  0  0  0  0
   -0.2297   -6.7823    0.0000 C   0  0  0  0  0  0  0  0  0  0  0  0
   -1.5396   -6.1149    0.0000 C   0  0  0  0  0  0  0  0  0  0  0  0
   -1.7945   -5.3303    0.0000 S   0  0  0  0  0  0  0  0  0  0  0  0
   -2.0245   -6.7823    0.0000 C   0  0  0  0  0  0  0  0  0  0  0  0
   -1.6889   -7.5360    0.0000 N   0  0  0  0  0  0  0  0  0  0  0  0
   -2.1739   -8.2034    0.0000 C   0  0  0  0  0  0  0  0  0  0  0  0
   -1.8383   -8.9571    0.0000 N   0  0  0  0  0  0  0  0  0  0  0  0
   -1.0178   -9.0433    0.0000 C   0  0  0  0  0  0  0  0  0  0  0  0
   -0.5329   -8.3759    0.0000 C   0  0  0  0  0  0  0  0  0  0  0  0
    0.2876   -8.4621    0.0000 C   0  0  0  0  0  0  0  0  0  0  0  0
    0.6231   -9.2158    0.0000 C   0  0  0  0  0  0  0  0  0  0  0  0
    0.1382   -9.8833    0.0000 C   0  0  0  0  0  0  0  0  0  0  0  0
   -0.6823   -9.7970    0.0000 C   0  0  0  0  0  0  0  0  0  0  0  0
    0.4738  -10.6369    0.0000 N   0  0  0  0  0  0  0  0  0  0  0  0
    1.2984  -10.6616    0.0000 C   0  0  0  0  0  0  0  0  0  0  0  0
    1.7933  -11.3217    0.0000 C   0  0  0  0  0  0  0  0  0  0  0  0
    1.5857  -12.1202    0.0000 C   0  0  0  0  0  0  0  0  0  0  0  0
    0.8320  -12.4557    0.0000 N   0  0  0  0  0  0  0  0  0  0  0  0
    0.0998  -12.0757    0.0000 C   0  0  0  0  0  0  0  0  0  0  0  0
   -0.0597  -11.2663    0.0000 C   0  0  0  0  0  0  0  0  0  0  0  0
   -2.9943   -8.1172    0.0000 N   0  0  0  0  0  0  0  0  0  0  0  0
   -3.3299   -7.3635    0.0000 C   0  0  0  0  0  0  0  0  0  0  0  0
   -2.8450   -6.6961    0.0000 C   0  0  0  0  0  0  0  0  0  0  0  0
   -3.1805   -5.9424    0.0000 C   0  0  0  0  0  0  0  0  0  0  0  0
  1  2  1  0  0  0  0
  2  3  1  0  0  0  0
  3  4  4  0  0  0  0
  4  5  4  0  0  0  0
  5  6  1  0  0  0  0
  5  7  4  0  0  0  0
  7  8  4  0  0  0  0
  3  8  4  0  0  0  0
  7  9  1  0  0  0  0
  9 10  4  0  0  0  0
 10 11  4  0  0  0  0
 11 12  1  0  0  0  0
 12 13  1  0  0  0  0
 13 14  4  0  0  0  0
 14 15  4  0  0  0  0
 15 16  4  0  0  0  0
 16 17  4  0  0  0  0
 17 18  4  0  0  0  0
 13 18  4  0  0  0  0
 17 19  1  0  0  0  0
 19 20  1  0  0  0  0
 20 21  1  0  0  0  0
 21 22  1  0  0  0  0
 22 23  1  0  0  0  0
 23 24  1  0  0  0  0
 24 25  1  0  0  0  0
 19 25  1  0  0  0  0
 11 26  4  0  0  0  0
 26 27  4  0  0  0  0
 27 28  4  0  0  0  0
  9 28  4  0  0  0  0
 28 29  1  0  0  0  0
M  END
> <BindingDB_ID/CHEMBL_ID>
50570302

> <pKi>
5.9

> <Target Name>
Cyclin-A2/Cyclin-dependent kinase 2

> <Target Source Organism>
Homo sapiens

> <Target Uniprot>
P24941

> <Article DOI>
10.1016/j.ejmech.2021.113244

$$$$

  Mrv2316 09262419122D          

 30 33  0  0  0  0            999 V2000
   -0.4126   -3.6078    0.0000 C   0  0  0  0  0  0  0  0  0  0  0  0
   -1.1271   -4.0203    0.0000 N   0  0  0  0  0  0  0  0  0  0  0  0
   -1.1271   -4.8453    0.0000 C   0  0  0  0  0  0  0  0  0  0  0  0
   -0.4596   -5.3303    0.0000 N   0  0  0  0  0  0  0  0  0  0  0  0
   -0.7146   -6.1149    0.0000 C   0  0  0  0  0  0  0  0  0  0  0  0
   -0.2297   -6.7823    0.0000 C   0  0  0  0  0  0  0  0  0  0  0  0
   -1.5396   -6.1149    0.0000 C   0  0  0  0  0  0  0  0  0  0  0  0
   -1.7945   -5.3303    0.0000 S   0  0  0  0  0  0  0  0  0  0  0  0
   -2.0245   -6.7823    0.0000 C   0  0  0  0  0  0  0  0  0  0  0  0
   -1.6889   -7.5360    0.0000 N   0  0  0  0  0  0  0  0  0  0  0  0
   -2.1739   -8.2034    0.0000 C   0  0  0  0  0  0  0  0  0  0  0  0
   -1.8383   -8.9571    0.0000 N   0  0  0  0  0  0  0  0  0  0  0  0
   -1.0178   -9.0433    0.0000 C   0  0  0  0  0  0  0  0  0  0  0  0
   -0.5329   -8.3759    0.0000 C   0  0  0  0  0  0  0  0  0  0  0  0
    0.2876   -8.4621    0.0000 C   0  0  0  0  0  0  0  0  0  0  0  0
    0.6231   -9.2158    0.0000 C   0  0  0  0  0  0  0  0  0  0  0  0
    0.1382   -9.8833    0.0000 C   0  0  0  0  0  0  0  0  0  0  0  0
   -0.6823   -9.7970    0.0000 C   0  0  0  0  0  0  0  0  0  0  0  0
    0.4738  -10.6369    0.0000 N   0  0  0  0  0  0  0  0  0  0  0  0
    1.2984  -10.6616    0.0000 C   0  0  0  0  0  0  0  0  0  0  0  0
    1.7933  -11.3217    0.0000 C   0  0  0  0  0  0  0  0  0  0  0  0
    1.5857  -12.1202    0.0000 N   0  0  0  0  0  0  0  0  0  0  0  0
    0.8320  -12.4557    0.0000 C   0  0  0  0  0  0  0  0  0  0  0  0
    0.8073  -13.2804    0.0000 O   0  0  0  0  0  0  0  0  0  0  0  0
    0.0998  -12.0757    0.0000 C   0  0  0  0  0  0  0  0  0  0  0  0
   -0.0597  -11.2663    0.0000 C   0  0  0  0  0  0  0  0  0  0  0  0
   -2.9943   -8.1172    0.0000 N   0  0  0  0  0  0  0  0  0  0  0  0
   -3.3299   -7.3635    0.0000 C   0  0  0  0  0  0  0  0  0  0  0  0
   -2.8450   -6.6961    0.0000 C   0  0  0  0  0  0  0  0  0  0  0  0
   -3.1805   -5.9424    0.0000 C   0  0  0  0  0  0  0  0  0  0  0  0
  1  2  1  0  0  0  0
  2  3  1  0  0  0  0
  3  4  4  0  0  0  0
  4  5  4  0  0  0  0
  5  6  1  0  0  0  0
  5  7  4  0  0  0  0
  7  8  4  0  0  0  0
  3  8  4  0  0  0  0
  7  9  1  0  0  0  0
  9 10  4  0  0  0  0
 10 11  4  0  0  0  0
 11 12  1  0  0  0  0
 12 13  1  0  0  0  0
 13 14  4  0  0  0  0
 14 15  4  0  0  0  0
 15 16  4  0  0  0  0
 16 17  4  0  0  0  0
 17 18  4  0  0  0  0
 13 18  4  0  0  0  0
 17 19  1  0  0  0  0
 19 20  1  0  0  0  0
 20 21  1  0  0  0  0
 21 22  1  0  0  0  0
 22 23  1  0  0  0  0
 23 24  2  0  0  0  0
 23 25  1  0  0  0  0
 25 26  1  0  0  0  0
 19 26  1  0  0  0  0
 11 27  4  0  0  0  0
 27 28  4  0  0  0  0
 28 29  4  0  0  0  0
  9 29  4  0  0  0  0
 29 30  1  0  0  0  0
M  END
> <BindingDB_ID/CHEMBL_ID>
50570303

> <pKi>
6.3

> <Target Name>
Cyclin-A2/Cyclin-dependent kinase 2

> <Target Source Organism>
Homo sapiens

> <Target Uniprot>
P24941

> <Article DOI>
10.1016/j.ejmech.2021.113244

$$$$

  Mrv2316 09262419122D          

 31 35  0  0  0  0            999 V2000
    7.9929    5.0177    0.0000 C   0  0  0  0  0  0  0  0  0  0  0  0
    7.2977    5.4618    0.0000 N   0  0  0  0  0  0  0  0  0  0  0  0
    6.5654    5.0818    0.0000 C   0  0  0  0  0  0  0  0  0  0  0  0
    6.4425    4.2660    0.0000 N   0  0  0  0  0  0  0  0  0  0  0  0
    5.6286    4.1309    0.0000 C   0  0  0  0  0  0  0  0  0  0  0  0
    5.2596    3.3930    0.0000 C   0  0  0  0  0  0  0  0  0  0  0  0
    5.2486    4.8631    0.0000 C   0  0  0  0  0  0  0  0  0  0  0  0
    5.8276    5.4508    0.0000 S   0  0  0  0  0  0  0  0  0  0  0  0
    4.4328    4.9861    0.0000 C   0  0  0  0  0  0  0  0  0  0  0  0
    3.9184    4.3411    0.0000 N   0  0  0  0  0  0  0  0  0  0  0  0
    3.1026    4.4640    0.0000 C   0  0  0  0  0  0  0  0  0  0  0  0
    2.5883    3.8190    0.0000 N   0  0  0  0  0  0  0  0  0  0  0  0
    2.8897    3.0511    0.0000 C   0  0  0  0  0  0  0  0  0  0  0  0
    3.7054    2.9281    0.0000 C   0  0  0  0  0  0  0  0  0  0  0  0
    4.0069    2.1601    0.0000 C   0  0  0  0  0  0  0  0  0  0  0  0
    3.4925    1.5151    0.0000 C   0  0  0  0  0  0  0  0  0  0  0  0
    2.6767    1.6381    0.0000 C   0  0  0  0  0  0  0  0  0  0  0  0
    2.3753    2.4060    0.0000 C   0  0  0  0  0  0  0  0  0  0  0  0
    2.1623    0.9931    0.0000 N   0  0  0  0  0  0  0  0  0  0  0  0
    2.5203    0.2498    0.0000 C   0  0  0  0  0  0  0  0  0  0  0  0
    2.1623   -0.4935    0.0000 C   0  0  0  0  0  0  0  0  0  0  0  0
    1.3580   -0.6771    0.0000 N   0  0  0  0  0  0  0  0  0  0  0  0
    0.7130   -0.1627    0.0000 C   0  0  0  0  0  0  0  0  0  0  0  0
    0.7130    0.6623    0.0000 C   0  0  0  0  0  0  0  0  0  0  0  0
    1.3580    1.1766    0.0000 C   0  0  0  0  0  0  0  0  0  0  0  0
    1.5125    0.5587    0.0000 C   0  0  0  0  0  0  0  0  0  0  0  0
    1.5125   -0.0592    0.0000 C   0  0  0  0  0  0  0  0  0  0  0  0
    2.8012    5.2320    0.0000 N   0  0  0  0  0  0  0  0  0  0  0  0
    3.3156    5.8770    0.0000 C   0  0  0  0  0  0  0  0  0  0  0  0
    4.1314    5.7541    0.0000 C   0  0  0  0  0  0  0  0  0  0  0  0
    4.6458    6.3991    0.0000 C   0  0  0  0  0  0  0  0  0  0  0  0
  1  2  1  0  0  0  0
  2  3  1  0  0  0  0
  3  4  4  0  0  0  0
  4  5  4  0  0  0  0
  5  6  1  0  0  0  0
  5  7  4  0  0  0  0
  7  8  4  0  0  0  0
  3  8  4  0  0  0  0
  7  9  1  0  0  0  0
  9 10  4  0  0  0  0
 10 11  4  0  0  0  0
 11 12  1  0  0  0  0
 12 13  1  0  0  0  0
 13 14  4  0  0  0  0
 14 15  4  0  0  0  0
 15 16  4  0  0  0  0
 16 17  4  0  0  0  0
 17 18  4  0  0  0  0
 13 18  4  0  0  0  0
 17 19  1  0  0  0  0
 19 20  1  0  0  0  0
 20 21  1  0  0  0  0
 21 22  1  0  0  0  0
 22 23  1  0  0  0  0
 23 24  1  0  0  0  0
 24 25  1  0  0  0  0
 19 25  1  0  0  0  0
 25 26  1  0  0  0  0
 26 27  1  0  0  0  0
 22 27  1  0  0  0  0
 11 28  4  0  0  0  0
 28 29  4  0  0  0  0
 29 30  4  0  0  0  0
  9 30  4  0  0  0  0
 30 31  1  0  0  0  0
M  END
> <BindingDB_ID/CHEMBL_ID>
50570304

> <pKi>
5.9

> <Target Name>
Cyclin-A2/Cyclin-dependent kinase 2

> <Target Source Organism>
Homo sapiens

> <Target Uniprot>
P24941

> <Article DOI>
10.1016/j.ejmech.2021.113244

$$$$

  Mrv2316 09262419122D          

 34 37  0  0  0  0            999 V2000
    0.8212   -3.7741    0.0000 C   0  0  0  0  0  0  0  0  0  0  0  0
    0.1067   -4.1866    0.0000 N   0  0  0  0  0  0  0  0  0  0  0  0
    0.1067   -5.0116    0.0000 C   0  0  0  0  0  0  0  0  0  0  0  0
    0.7741   -5.4965    0.0000 N   0  0  0  0  0  0  0  0  0  0  0  0
    0.5192   -6.2812    0.0000 C   0  0  0  0  0  0  0  0  0  0  0  0
    1.0041   -6.9486    0.0000 C   0  0  0  0  0  0  0  0  0  0  0  0
   -0.3058   -6.2812    0.0000 C   0  0  0  0  0  0  0  0  0  0  0  0
   -0.5607   -5.4965    0.0000 S   0  0  0  0  0  0  0  0  0  0  0  0
   -0.7907   -6.9486    0.0000 C   0  0  0  0  0  0  0  0  0  0  0  0
   -0.4552   -7.7023    0.0000 N   0  0  0  0  0  0  0  0  0  0  0  0
   -0.9401   -8.3697    0.0000 C   0  0  0  0  0  0  0  0  0  0  0  0
   -0.6045   -9.1234    0.0000 N   0  0  0  0  0  0  0  0  0  0  0  0
    0.2160   -9.2096    0.0000 C   0  0  0  0  0  0  0  0  0  0  0  0
    0.7009   -8.5422    0.0000 C   0  0  0  0  0  0  0  0  0  0  0  0
    1.5214   -8.6284    0.0000 C   0  0  0  0  0  0  0  0  0  0  0  0
    1.8569   -9.3821    0.0000 C   0  0  0  0  0  0  0  0  0  0  0  0
    1.3720  -10.0495    0.0000 C   0  0  0  0  0  0  0  0  0  0  0  0
    0.5515   -9.9633    0.0000 C   0  0  0  0  0  0  0  0  0  0  0  0
    1.7076  -10.8032    0.0000 N   0  0  0  0  0  0  0  0  0  0  0  0
    2.5280  -10.8894    0.0000 C   0  0  0  0  0  0  0  0  0  0  0  0
    2.8636  -11.6431    0.0000 C   0  0  0  0  0  0  0  0  0  0  0  0
    2.3787  -12.3106    0.0000 N   0  0  0  0  0  0  0  0  0  0  0  0
    1.5582  -12.2243    0.0000 C   0  0  0  0  0  0  0  0  0  0  0  0
    1.2226  -11.4706    0.0000 C   0  0  0  0  0  0  0  0  0  0  0  0
    2.7142  -13.0642    0.0000 C   0  0  0  0  0  0  0  0  0  0  0  0
    3.5347  -13.1505    0.0000 C   0  0  0  0  0  0  0  0  0  0  0  0
    2.2293  -13.7317    0.0000 O   0  0  0  0  0  0  0  0  0  0  0  0
   -1.7606   -8.2835    0.0000 N   0  0  0  0  0  0  0  0  0  0  0  0
   -2.0961   -7.5298    0.0000 C   0  0  0  0  0  0  0  0  0  0  0  0
   -1.6112   -6.8624    0.0000 C   0  0  0  0  0  0  0  0  0  0  0  0
   -1.9468   -6.1087    0.0000 C   0  0  0  0  0  0  0  0  0  0  0  0
   -2.2823   -5.3550    0.0000 F   0  0  0  0  0  0  0  0  0  0  0  0
   -1.1931   -5.7731    0.0000 F   0  0  0  0  0  0  0  0  0  0  0  0
   -2.7004   -6.4442    0.0000 F   0  0  0  0  0  0  0  0  0  0  0  0
  1  2  1  0  0  0  0
  2  3  1  0  0  0  0
  3  4  4  0  0  0  0
  4  5  4  0  0  0  0
  5  6  1  0  0  0  0
  5  7  4  0  0  0  0
  7  8  4  0  0  0  0
  3  8  4  0  0  0  0
  7  9  1  0  0  0  0
  9 10  4  0  0  0  0
 10 11  4  0  0  0  0
 11 12  1  0  0  0  0
 12 13  1  0  0  0  0
 13 14  4  0  0  0  0
 14 15  4  0  0  0  0
 15 16  4  0  0  0  0
 16 17  4  0  0  0  0
 17 18  4  0  0  0  0
 13 18  4  0  0  0  0
 17 19  1  0  0  0  0
 19 20  1  0  0  0  0
 20 21  1  0  0  0  0
 21 22  1  0  0  0  0
 22 23  1  0  0  0  0
 23 24  1  0  0  0  0
 19 24  1  0  0  0  0
 22 25  1  0  0  0  0
 25 26  1  0  0  0  0
 25 27  2  0  0  0  0
 11 28  4  0  0  0  0
 28 29  4  0  0  0  0
 29 30  4  0  0  0  0
  9 30  4  0  0  0  0
 30 31  1  0  0  0  0
 31 32  1  0  0  0  0
 31 33  1  0  0  0  0
 31 34  1  0  0  0  0
M  END
> <BindingDB_ID/CHEMBL_ID>
50570305

> <pKi>
5.9

> <Target Name>
Cyclin-A2/Cyclin-dependent kinase 2

> <Target Source Organism>
Homo sapiens

> <Target Uniprot>
P24941

> <Article DOI>
10.1016/j.ejmech.2021.113244

$$$$

  Mrv2316 09262419122D          

 31 34  0  0  0  0            999 V2000
    0.8212   -3.7741    0.0000 C   0  0  0  0  0  0  0  0  0  0  0  0
    0.1067   -4.1866    0.0000 N   0  0  0  0  0  0  0  0  0  0  0  0
    0.1067   -5.0116    0.0000 C   0  0  0  0  0  0  0  0  0  0  0  0
    0.7741   -5.4965    0.0000 N   0  0  0  0  0  0  0  0  0  0  0  0
    0.5192   -6.2812    0.0000 C   0  0  0  0  0  0  0  0  0  0  0  0
    1.0041   -6.9486    0.0000 C   0  0  0  0  0  0  0  0  0  0  0  0
   -0.3058   -6.2812    0.0000 C   0  0  0  0  0  0  0  0  0  0  0  0
   -0.5607   -5.4965    0.0000 S   0  0  0  0  0  0  0  0  0  0  0  0
   -0.7907   -6.9486    0.0000 C   0  0  0  0  0  0  0  0  0  0  0  0
   -0.4552   -7.7023    0.0000 N   0  0  0  0  0  0  0  0  0  0  0  0
   -0.9401   -8.3697    0.0000 C   0  0  0  0  0  0  0  0  0  0  0  0
   -0.6045   -9.1234    0.0000 N   0  0  0  0  0  0  0  0  0  0  0  0
    0.2160   -9.2096    0.0000 C   0  0  0  0  0  0  0  0  0  0  0  0
    0.7009   -8.5422    0.0000 C   0  0  0  0  0  0  0  0  0  0  0  0
    1.5214   -8.6284    0.0000 C   0  0  0  0  0  0  0  0  0  0  0  0
    1.8569   -9.3821    0.0000 C   0  0  0  0  0  0  0  0  0  0  0  0
    1.3720  -10.0495    0.0000 C   0  0  0  0  0  0  0  0  0  0  0  0
    0.5515   -9.9633    0.0000 C   0  0  0  0  0  0  0  0  0  0  0  0
    1.7076  -10.8032    0.0000 N   0  0  0  0  0  0  0  0  0  0  0  0
    2.5280  -10.8894    0.0000 C   0  0  0  0  0  0  0  0  0  0  0  0
    2.8636  -11.6431    0.0000 C   0  0  0  0  0  0  0  0  0  0  0  0
    2.3787  -12.3106    0.0000 N   0  0  0  0  0  0  0  0  0  0  0  0
    1.5582  -12.2243    0.0000 C   0  0  0  0  0  0  0  0  0  0  0  0
    1.2226  -11.4706    0.0000 C   0  0  0  0  0  0  0  0  0  0  0  0
   -1.7606   -8.2835    0.0000 N   0  0  0  0  0  0  0  0  0  0  0  0
   -2.0961   -7.5298    0.0000 C   0  0  0  0  0  0  0  0  0  0  0  0
   -1.6112   -6.8624    0.0000 C   0  0  0  0  0  0  0  0  0  0  0  0
   -1.9468   -6.1087    0.0000 C   0  0  0  0  0  0  0  0  0  0  0  0
   -2.2823   -5.3550    0.0000 F   0  0  0  0  0  0  0  0  0  0  0  0
   -1.1931   -5.7731    0.0000 F   0  0  0  0  0  0  0  0  0  0  0  0
   -2.7004   -6.4442    0.0000 F   0  0  0  0  0  0  0  0  0  0  0  0
  1  2  1  0  0  0  0
  2  3  1  0  0  0  0
  3  4  4  0  0  0  0
  4  5  4  0  0  0  0
  5  6  1  0  0  0  0
  5  7  4  0  0  0  0
  7  8  4  0  0  0  0
  3  8  4  0  0  0  0
  7  9  1  0  0  0  0
  9 10  4  0  0  0  0
 10 11  4  0  0  0  0
 11 12  1  0  0  0  0
 12 13  1  0  0  0  0
 13 14  4  0  0  0  0
 14 15  4  0  0  0  0
 15 16  4  0  0  0  0
 16 17  4  0  0  0  0
 17 18  4  0  0  0  0
 13 18  4  0  0  0  0
 17 19  1  0  0  0  0
 19 20  1  0  0  0  0
 20 21  1  0  0  0  0
 21 22  1  0  0  0  0
 22 23  1  0  0  0  0
 23 24  1  0  0  0  0
 19 24  1  0  0  0  0
 11 25  4  0  0  0  0
 25 26  4  0  0  0  0
 26 27  4  0  0  0  0
  9 27  4  0  0  0  0
 27 28  1  0  0  0  0
 28 29  1  0  0  0  0
 28 30  1  0  0  0  0
 28 31  1  0  0  0  0
M  END
> <BindingDB_ID/CHEMBL_ID>
50570306

> <pKi>
5.7

> <Target Name>
Cyclin-A2/Cyclin-dependent kinase 2

> <Target Source Organism>
Homo sapiens

> <Target Uniprot>
P24941

> <Article DOI>
10.1016/j.ejmech.2021.113244

$$$$

  Mrv2316 09262419122D          

 29 32  0  0  0  0            999 V2000
    0.8212   -3.7741    0.0000 C   0  0  0  0  0  0  0  0  0  0  0  0
    0.1067   -4.1866    0.0000 N   0  0  0  0  0  0  0  0  0  0  0  0
    0.1067   -5.0116    0.0000 C   0  0  0  0  0  0  0  0  0  0  0  0
    0.7741   -5.4965    0.0000 N   0  0  0  0  0  0  0  0  0  0  0  0
    0.5192   -6.2812    0.0000 C   0  0  0  0  0  0  0  0  0  0  0  0
    1.0041   -6.9486    0.0000 C   0  0  0  0  0  0  0  0  0  0  0  0
   -0.3058   -6.2812    0.0000 C   0  0  0  0  0  0  0  0  0  0  0  0
   -0.5607   -5.4965    0.0000 S   0  0  0  0  0  0  0  0  0  0  0  0
   -0.7907   -6.9486    0.0000 C   0  0  0  0  0  0  0  0  0  0  0  0
   -0.4552   -7.7023    0.0000 N   0  0  0  0  0  0  0  0  0  0  0  0
   -0.9401   -8.3697    0.0000 C   0  0  0  0  0  0  0  0  0  0  0  0
   -0.6045   -9.1234    0.0000 N   0  0  0  0  0  0  0  0  0  0  0  0
    0.2160   -9.2096    0.0000 C   0  0  0  0  0  0  0  0  0  0  0  0
    0.7009   -8.5422    0.0000 C   0  0  0  0  0  0  0  0  0  0  0  0
    1.5214   -8.6284    0.0000 C   0  0  0  0  0  0  0  0  0  0  0  0
    1.8569   -9.3821    0.0000 C   0  0  0  0  0  0  0  0  0  0  0  0
    1.3720  -10.0495    0.0000 C   0  0  0  0  0  0  0  0  0  0  0  0
    0.5515   -9.9633    0.0000 C   0  0  0  0  0  0  0  0  0  0  0  0
    1.7076  -10.8032    0.0000 N   0  0  0  0  0  0  0  0  0  0  0  0
    2.5280  -10.8894    0.0000 C   0  0  0  0  0  0  0  0  0  0  0  0
    2.8636  -11.6431    0.0000 C   0  0  0  0  0  0  0  0  0  0  0  0
    2.3787  -12.3106    0.0000 O   0  0  0  0  0  0  0  0  0  0  0  0
    1.5582  -12.2243    0.0000 C   0  0  0  0  0  0  0  0  0  0  0  0
    1.2226  -11.4706    0.0000 C   0  0  0  0  0  0  0  0  0  0  0  0
   -1.7606   -8.2835    0.0000 N   0  0  0  0  0  0  0  0  0  0  0  0
   -2.0961   -7.5298    0.0000 C   0  0  0  0  0  0  0  0  0  0  0  0
   -1.6112   -6.8624    0.0000 C   0  0  0  0  0  0  0  0  0  0  0  0
   -1.9468   -6.1087    0.0000 C   0  0  0  0  0  0  0  0  0  0  0  0
   -1.4618   -5.4412    0.0000 C   0  0  0  0  0  0  0  0  0  0  0  0
  1  2  1  0  0  0  0
  2  3  1  0  0  0  0
  3  4  4  0  0  0  0
  4  5  4  0  0  0  0
  5  6  1  0  0  0  0
  5  7  4  0  0  0  0
  7  8  4  0  0  0  0
  3  8  4  0  0  0  0
  7  9  1  0  0  0  0
  9 10  4  0  0  0  0
 10 11  4  0  0  0  0
 11 12  1  0  0  0  0
 12 13  1  0  0  0  0
 13 14  4  0  0  0  0
 14 15  4  0  0  0  0
 15 16  4  0  0  0  0
 16 17  4  0  0  0  0
 17 18  4  0  0  0  0
 13 18  4  0  0  0  0
 17 19  1  0  0  0  0
 19 20  1  0  0  0  0
 20 21  1  0  0  0  0
 21 22  1  0  0  0  0
 22 23  1  0  0  0  0
 23 24  1  0  0  0  0
 19 24  1  0  0  0  0
 11 25  4  0  0  0  0
 25 26  4  0  0  0  0
 26 27  4  0  0  0  0
  9 27  4  0  0  0  0
 27 28  1  0  0  0  0
 28 29  2  0  0  0  0
M  END
> <BindingDB_ID/CHEMBL_ID>
50570307

> <pKi>
6.3

> <Target Name>
Cyclin-A2/Cyclin-dependent kinase 2

> <Target Source Organism>
Homo sapiens

> <Target Uniprot>
P24941

> <Article DOI>
10.1016/j.ejmech.2021.113244

$$$$

  Mrv2316 09262419122D          

 31 34  0  0  0  0            999 V2000
    0.8212   -3.7741    0.0000 C   0  0  0  0  0  0  0  0  0  0  0  0
    0.1067   -4.1866    0.0000 N   0  0  0  0  0  0  0  0  0  0  0  0
    0.1067   -5.0116    0.0000 C   0  0  0  0  0  0  0  0  0  0  0  0
    0.7741   -5.4965    0.0000 N   0  0  0  0  0  0  0  0  0  0  0  0
    0.5192   -6.2812    0.0000 C   0  0  0  0  0  0  0  0  0  0  0  0
    1.0041   -6.9486    0.0000 C   0  0  0  0  0  0  0  0  0  0  0  0
   -0.3058   -6.2812    0.0000 C   0  0  0  0  0  0  0  0  0  0  0  0
   -0.5607   -5.4965    0.0000 S   0  0  0  0  0  0  0  0  0  0  0  0
   -0.7907   -6.9486    0.0000 C   0  0  0  0  0  0  0  0  0  0  0  0
   -0.4552   -7.7023    0.0000 N   0  0  0  0  0  0  0  0  0  0  0  0
   -0.9401   -8.3697    0.0000 C   0  0  0  0  0  0  0  0  0  0  0  0
   -0.6045   -9.1234    0.0000 N   0  0  0  0  0  0  0  0  0  0  0  0
    0.2160   -9.2096    0.0000 C   0  0  0  0  0  0  0  0  0  0  0  0
    0.7009   -8.5422    0.0000 C   0  0  0  0  0  0  0  0  0  0  0  0
    1.5214   -8.6284    0.0000 C   0  0  0  0  0  0  0  0  0  0  0  0
    1.8569   -9.3821    0.0000 C   0  0  0  0  0  0  0  0  0  0  0  0
    1.3720  -10.0495    0.0000 C   0  0  0  0  0  0  0  0  0  0  0  0
    0.5515   -9.9633    0.0000 C   0  0  0  0  0  0  0  0  0  0  0  0
    1.7076  -10.8032    0.0000 N   0  0  0  0  0  0  0  0  0  0  0  0
    2.5280  -10.8894    0.0000 C   0  0  0  0  0  0  0  0  0  0  0  0
    2.8636  -11.6431    0.0000 C   0  0  0  0  0  0  0  0  0  0  0  0
    2.3787  -12.3106    0.0000 N   0  0  0  0  0  0  0  0  0  0  0  0
    1.5582  -12.2243    0.0000 C   0  0  0  0  0  0  0  0  0  0  0  0
    1.2226  -11.4706    0.0000 C   0  0  0  0  0  0  0  0  0  0  0  0
    2.7142  -13.0642    0.0000 C   0  0  0  0  0  0  0  0  0  0  0  0
    3.5347  -13.1505    0.0000 C   0  0  0  0  0  0  0  0  0  0  0  0
    2.2293  -13.7317    0.0000 O   0  0  0  0  0  0  0  0  0  0  0  0
   -1.7606   -8.2835    0.0000 N   0  0  0  0  0  0  0  0  0  0  0  0
   -2.0961   -7.5298    0.0000 C   0  0  0  0  0  0  0  0  0  0  0  0
   -1.6112   -6.8624    0.0000 C   0  0  0  0  0  0  0  0  0  0  0  0
   -1.9468   -6.1087    0.0000 Br  0  0  0  0  0  0  0  0  0  0  0  0
  1  2  1  0  0  0  0
  2  3  1  0  0  0  0
  3  4  4  0  0  0  0
  4  5  4  0  0  0  0
  5  6  1  0  0  0  0
  5  7  4  0  0  0  0
  7  8  4  0  0  0  0
  3  8  4  0  0  0  0
  7  9  1  0  0  0  0
  9 10  4  0  0  0  0
 10 11  4  0  0  0  0
 11 12  1  0  0  0  0
 12 13  1  0  0  0  0
 13 14  4  0  0  0  0
 14 15  4  0  0  0  0
 15 16  4  0  0  0  0
 16 17  4  0  0  0  0
 17 18  4  0  0  0  0
 13 18  4  0  0  0  0
 17 19  1  0  0  0  0
 19 20  1  0  0  0  0
 20 21  1  0  0  0  0
 21 22  1  0  0  0  0
 22 23  1  0  0  0  0
 23 24  1  0  0  0  0
 19 24  1  0  0  0  0
 22 25  1  0  0  0  0
 25 26  1  0  0  0  0
 25 27  2  0  0  0  0
 11 28  4  0  0  0  0
 28 29  4  0  0  0  0
 29 30  4  0  0  0  0
  9 30  4  0  0  0  0
 30 31  1  0  0  0  0
M  END
> <BindingDB_ID/CHEMBL_ID>
50570308

> <pKi>
6.9

> <Target Name>
Cyclin-A2/Cyclin-dependent kinase 2

> <Target Source Organism>
Homo sapiens

> <Target Uniprot>
P24941

> <Article DOI>
10.1016/j.ejmech.2021.113244

$$$$

  Mrv2316 09262419122D          

 31 34  0  0  0  0            999 V2000
    3.5587   -4.5143    0.0000 C   0  0  0  0  0  0  0  0  0  0  0  0
    2.8442   -4.9268    0.0000 N   0  0  0  0  0  0  0  0  0  0  0  0
    2.8442   -5.7518    0.0000 C   0  0  0  0  0  0  0  0  0  0  0  0
    3.5116   -6.2367    0.0000 N   0  0  0  0  0  0  0  0  0  0  0  0
    3.2567   -7.0213    0.0000 C   0  0  0  0  0  0  0  0  0  0  0  0
    2.4317   -7.0213    0.0000 C   0  0  0  0  0  0  0  0  0  0  0  0
    2.1768   -6.2367    0.0000 S   0  0  0  0  0  0  0  0  0  0  0  0
    1.9468   -7.6887    0.0000 C   0  0  0  0  0  0  0  0  0  0  0  0
    2.2823   -8.4424    0.0000 C   0  0  0  0  0  0  0  0  0  0  0  0
    1.7974   -9.1099    0.0000 C   0  0  0  0  0  0  0  0  0  0  0  0
    0.9769   -9.0236    0.0000 N   0  0  0  0  0  0  0  0  0  0  0  0
    0.6414   -8.2699    0.0000 C   0  0  0  0  0  0  0  0  0  0  0  0
   -0.1791   -8.1837    0.0000 N   0  0  0  0  0  0  0  0  0  0  0  0
   -0.6640   -8.8512    0.0000 C   0  0  0  0  0  0  0  0  0  0  0  0
   -0.3285   -9.6048    0.0000 C   0  0  0  0  0  0  0  0  0  0  0  0
   -0.8134  -10.2723    0.0000 C   0  0  0  0  0  0  0  0  0  0  0  0
   -1.6339  -10.1860    0.0000 C   0  0  0  0  0  0  0  0  0  0  0  0
   -1.9694   -9.4324    0.0000 C   0  0  0  0  0  0  0  0  0  0  0  0
   -1.4845   -8.7649    0.0000 C   0  0  0  0  0  0  0  0  0  0  0  0
   -2.7899   -9.3461    0.0000 N   0  0  0  0  0  0  0  0  0  0  0  0
   -3.2236  -10.0479    0.0000 C   0  0  0  0  0  0  0  0  0  0  0  0
   -4.0427  -10.1464    0.0000 C   0  0  0  0  0  0  0  0  0  0  0  0
   -4.6304   -9.5674    0.0000 C   0  0  0  0  0  0  0  0  0  0  0  0
   -4.5442   -8.7470    0.0000 N   0  0  0  0  0  0  0  0  0  0  0  0
   -3.8489   -8.3028    0.0000 C   0  0  0  0  0  0  0  0  0  0  0  0
   -3.0682   -8.5695    0.0000 C   0  0  0  0  0  0  0  0  0  0  0  0
    1.1263   -7.6025    0.0000 N   0  0  0  0  0  0  0  0  0  0  0  0
    3.7416   -7.6887    0.0000 C   0  0  0  0  0  0  0  0  0  0  0  0
    4.2266   -8.3562    0.0000 F   0  0  0  0  0  0  0  0  0  0  0  0
    3.0742   -8.1737    0.0000 F   0  0  0  0  0  0  0  0  0  0  0  0
    4.4091   -7.2038    0.0000 F   0  0  0  0  0  0  0  0  0  0  0  0
  1  2  1  0  0  0  0
  2  3  1  0  0  0  0
  3  4  4  0  0  0  0
  4  5  4  0  0  0  0
  5  6  4  0  0  0  0
  6  7  4  0  0  0  0
  3  7  4  0  0  0  0
  6  8  1  0  0  0  0
  8  9  4  0  0  0  0
  9 10  4  0  0  0  0
 10 11  4  0  0  0  0
 11 12  4  0  0  0  0
 12 13  1  0  0  0  0
 13 14  1  0  0  0  0
 14 15  4  0  0  0  0
 15 16  4  0  0  0  0
 16 17  4  0  0  0  0
 17 18  4  0  0  0  0
 18 19  4  0  0  0  0
 14 19  4  0  0  0  0
 18 20  1  0  0  0  0
 20 21  1  0  0  0  0
 21 22  1  0  0  0  0
 22 23  1  0  0  0  0
 23 24  1  0  0  0  0
 24 25  1  0  0  0  0
 25 26  1  0  0  0  0
 20 26  1  0  0  0  0
 12 27  4  0  0  0  0
  8 27  4  0  0  0  0
  5 28  1  0  0  0  0
 28 29  1  0  0  0  0
 28 30  1  0  0  0  0
 28 31  1  0  0  0  0
M  END
> <BindingDB_ID/CHEMBL_ID>
50570309

> <pKi>
7.9

> <Target Name>
Cyclin-A2/Cyclin-dependent kinase 2

> <Target Source Organism>
Homo sapiens

> <Target Uniprot>
P24941

> <Article DOI>
10.1016/j.ejmech.2021.113244

$$$$

  Mrv2316 09262419122D          

 27 30  0  0  0  0            999 V2000
    3.5587   -4.5143    0.0000 C   0  0  0  0  0  0  0  0  0  0  0  0
    2.8442   -4.9268    0.0000 N   0  0  0  0  0  0  0  0  0  0  0  0
    2.8442   -5.7518    0.0000 C   0  0  0  0  0  0  0  0  0  0  0  0
    3.5116   -6.2367    0.0000 N   0  0  0  0  0  0  0  0  0  0  0  0
    3.2567   -7.0213    0.0000 C   0  0  0  0  0  0  0  0  0  0  0  0
    2.4317   -7.0213    0.0000 C   0  0  0  0  0  0  0  0  0  0  0  0
    2.1768   -6.2367    0.0000 S   0  0  0  0  0  0  0  0  0  0  0  0
    1.9468   -7.6887    0.0000 C   0  0  0  0  0  0  0  0  0  0  0  0
    2.2823   -8.4424    0.0000 C   0  0  0  0  0  0  0  0  0  0  0  0
    1.7974   -9.1099    0.0000 C   0  0  0  0  0  0  0  0  0  0  0  0
    0.9769   -9.0236    0.0000 N   0  0  0  0  0  0  0  0  0  0  0  0
    0.6414   -8.2699    0.0000 C   0  0  0  0  0  0  0  0  0  0  0  0
   -0.1791   -8.1837    0.0000 N   0  0  0  0  0  0  0  0  0  0  0  0
   -0.6640   -8.8512    0.0000 C   0  0  0  0  0  0  0  0  0  0  0  0
   -0.3285   -9.6048    0.0000 C   0  0  0  0  0  0  0  0  0  0  0  0
   -0.8134  -10.2723    0.0000 C   0  0  0  0  0  0  0  0  0  0  0  0
   -1.6339  -10.1860    0.0000 C   0  0  0  0  0  0  0  0  0  0  0  0
   -1.9694   -9.4324    0.0000 C   0  0  0  0  0  0  0  0  0  0  0  0
   -1.4845   -8.7649    0.0000 C   0  0  0  0  0  0  0  0  0  0  0  0
   -2.7899   -9.3461    0.0000 N   0  0  0  0  0  0  0  0  0  0  0  0
   -3.2236  -10.0479    0.0000 C   0  0  0  0  0  0  0  0  0  0  0  0
   -4.0427  -10.1464    0.0000 C   0  0  0  0  0  0  0  0  0  0  0  0
   -4.6304   -9.5674    0.0000 C   0  0  0  0  0  0  0  0  0  0  0  0
   -4.5442   -8.7470    0.0000 N   0  0  0  0  0  0  0  0  0  0  0  0
   -3.8489   -8.3028    0.0000 C   0  0  0  0  0  0  0  0  0  0  0  0
   -3.0682   -8.5695    0.0000 C   0  0  0  0  0  0  0  0  0  0  0  0
    1.1263   -7.6025    0.0000 N   0  0  0  0  0  0  0  0  0  0  0  0
  1  2  1  0  0  0  0
  2  3  1  0  0  0  0
  3  4  4  0  0  0  0
  4  5  4  0  0  0  0
  5  6  4  0  0  0  0
  6  7  4  0  0  0  0
  3  7  4  0  0  0  0
  6  8  1  0  0  0  0
  8  9  4  0  0  0  0
  9 10  4  0  0  0  0
 10 11  4  0  0  0  0
 11 12  4  0  0  0  0
 12 13  1  0  0  0  0
 13 14  1  0  0  0  0
 14 15  4  0  0  0  0
 15 16  4  0  0  0  0
 16 17  4  0  0  0  0
 17 18  4  0  0  0  0
 18 19  4  0  0  0  0
 14 19  4  0  0  0  0
 18 20  1  0  0  0  0
 20 21  1  0  0  0  0
 21 22  1  0  0  0  0
 22 23  1  0  0  0  0
 23 24  1  0  0  0  0
 24 25  1  0  0  0  0
 25 26  1  0  0  0  0
 20 26  1  0  0  0  0
 12 27  4  0  0  0  0
  8 27  4  0  0  0  0
M  END
> <BindingDB_ID/CHEMBL_ID>
50570310

> <pKi>
7.7

> <Target Name>
Cyclin-A2/Cyclin-dependent kinase 2

> <Target Source Organism>
Homo sapiens

> <Target Uniprot>
P24941

> <Article DOI>
10.1016/j.ejmech.2021.113244

$$$$

  Mrv2316 09262419122D          

 33 37  0  0  0  0            999 V2000
    5.1239   -5.1392    0.0000 C   0  0  0  0  0  0  0  0  0  0  0  0
    4.3034   -5.0529    0.0000 N   0  0  0  0  0  0  0  0  0  0  0  0
    3.8185   -5.7204    0.0000 C   0  0  0  0  0  0  0  0  0  0  0  0
    4.0734   -6.5050    0.0000 N   0  0  0  0  0  0  0  0  0  0  0  0
    3.4060   -6.9899    0.0000 C   0  0  0  0  0  0  0  0  0  0  0  0
    3.4060   -7.8149    0.0000 C   0  0  0  0  0  0  0  0  0  0  0  0
    3.8185   -8.5294    0.0000 C   0  0  0  0  0  0  0  0  0  0  0  0
    2.9935   -8.5294    0.0000 C   0  0  0  0  0  0  0  0  0  0  0  0
    2.7386   -6.5050    0.0000 C   0  0  0  0  0  0  0  0  0  0  0  0
    2.9935   -5.7204    0.0000 S   0  0  0  0  0  0  0  0  0  0  0  0
    1.9539   -6.7599    0.0000 C   0  0  0  0  0  0  0  0  0  0  0  0
    1.7824   -7.5669    0.0000 C   0  0  0  0  0  0  0  0  0  0  0  0
    0.9978   -7.8218    0.0000 C   0  0  0  0  0  0  0  0  0  0  0  0
    0.3847   -7.2698    0.0000 N   0  0  0  0  0  0  0  0  0  0  0  0
    0.5562   -6.4628    0.0000 C   0  0  0  0  0  0  0  0  0  0  0  0
   -0.0569   -5.9108    0.0000 N   0  0  0  0  0  0  0  0  0  0  0  0
   -0.8415   -6.1657    0.0000 C   0  0  0  0  0  0  0  0  0  0  0  0
   -1.0130   -6.9727    0.0000 C   0  0  0  0  0  0  0  0  0  0  0  0
   -1.7976   -7.2277    0.0000 C   0  0  0  0  0  0  0  0  0  0  0  0
   -2.4107   -6.6756    0.0000 C   0  0  0  0  0  0  0  0  0  0  0  0
   -2.2392   -5.8687    0.0000 C   0  0  0  0  0  0  0  0  0  0  0  0
   -1.4546   -5.6137    0.0000 C   0  0  0  0  0  0  0  0  0  0  0  0
   -2.8523   -5.3166    0.0000 C   0  0  0  0  0  0  0  0  0  0  0  0
   -2.6808   -4.5096    0.0000 O   0  0  0  0  0  0  0  0  0  0  0  0
   -3.6369   -5.5716    0.0000 N   0  0  0  0  0  0  0  0  0  0  0  0
   -4.2500   -5.0195    0.0000 C   0  0  0  0  0  0  0  0  0  0  0  0
   -5.0346   -5.2745    0.0000 C   0  0  0  0  0  0  0  0  0  0  0  0
   -5.6477   -4.7224    0.0000 C   0  0  0  0  0  0  0  0  0  0  0  0
   -5.4762   -3.9155    0.0000 N   0  0  0  0  0  0  0  0  0  0  0  0
   -6.0893   -3.3634    0.0000 C   0  0  0  0  0  0  0  0  0  0  0  0
   -4.6916   -3.6605    0.0000 C   0  0  0  0  0  0  0  0  0  0  0  0
   -4.0785   -4.2126    0.0000 C   0  0  0  0  0  0  0  0  0  0  0  0
    1.3408   -6.2079    0.0000 N   0  0  0  0  0  0  0  0  0  0  0  0
  1  2  1  0  0  0  0
  2  3  1  0  0  0  0
  3  4  4  0  0  0  0
  4  5  4  0  0  0  0
  5  6  1  0  0  0  0
  6  7  1  0  0  0  0
  7  8  1  0  0  0  0
  6  8  1  0  0  0  0
  5  9  4  0  0  0  0
  9 10  4  0  0  0  0
  3 10  4  0  0  0  0
  9 11  1  0  0  0  0
 11 12  4  0  0  0  0
 12 13  4  0  0  0  0
 13 14  4  0  0  0  0
 14 15  4  0  0  0  0
 15 16  1  0  0  0  0
 16 17  1  0  0  0  0
 17 18  4  0  0  0  0
 18 19  4  0  0  0  0
 19 20  4  0  0  0  0
 20 21  4  0  0  0  0
 21 22  4  0  0  0  0
 17 22  4  0  0  0  0
 21 23  1  0  0  0  0
 23 24  2  0  0  0  0
 23 25  1  0  0  0  0
 25 26  1  0  0  0  0
 26 27  1  0  0  0  0
 27 28  1  0  0  0  0
 28 29  1  0  0  0  0
 29 30  1  0  0  0  0
 29 31  1  0  0  0  0
 31 32  1  0  0  0  0
 26 32  1  0  0  0  0
 15 33  4  0  0  0  0
 11 33  4  0  0  0  0
M  END
> <BindingDB_ID/CHEMBL_ID>
50570311

> <pKi>
6.9

> <Target Name>
Cyclin-A2/Cyclin-dependent kinase 2

> <Target Source Organism>
Homo sapiens

> <Target Uniprot>
P24941

> <Article DOI>
10.1016/j.ejmech.2021.113244

$$$$

  Mrv2316 09262419122D          

 32 35  0  0  0  0            999 V2000
    4.8946   -3.7741    0.0000 C   0  0  0  0  0  0  0  0  0  0  0  0
    4.1801   -4.1866    0.0000 N   0  0  0  0  0  0  0  0  0  0  0  0
    4.1801   -5.0116    0.0000 C   0  0  0  0  0  0  0  0  0  0  0  0
    4.8476   -5.4965    0.0000 N   0  0  0  0  0  0  0  0  0  0  0  0
    4.5926   -6.2812    0.0000 C   0  0  0  0  0  0  0  0  0  0  0  0
    5.0775   -6.9486    0.0000 C   0  0  0  0  0  0  0  0  0  0  0  0
    4.7420   -7.7023    0.0000 C   0  0  0  0  0  0  0  0  0  0  0  0
    5.8980   -6.8624    0.0000 C   0  0  0  0  0  0  0  0  0  0  0  0
    3.7676   -6.2812    0.0000 C   0  0  0  0  0  0  0  0  0  0  0  0
    3.5127   -5.4965    0.0000 S   0  0  0  0  0  0  0  0  0  0  0  0
    3.2827   -6.9486    0.0000 C   0  0  0  0  0  0  0  0  0  0  0  0
    3.6183   -7.7023    0.0000 C   0  0  0  0  0  0  0  0  0  0  0  0
    3.1333   -8.3697    0.0000 C   0  0  0  0  0  0  0  0  0  0  0  0
    2.3129   -8.2835    0.0000 N   0  0  0  0  0  0  0  0  0  0  0  0
    1.9773   -7.5298    0.0000 C   0  0  0  0  0  0  0  0  0  0  0  0
    1.1568   -7.4436    0.0000 N   0  0  0  0  0  0  0  0  0  0  0  0
    0.6719   -8.1110    0.0000 C   0  0  0  0  0  0  0  0  0  0  0  0
    1.0074   -8.8647    0.0000 C   0  0  0  0  0  0  0  0  0  0  0  0
    0.5225   -9.5321    0.0000 C   0  0  0  0  0  0  0  0  0  0  0  0
   -0.2980   -9.4459    0.0000 C   0  0  0  0  0  0  0  0  0  0  0  0
   -0.6335   -8.6922    0.0000 C   0  0  0  0  0  0  0  0  0  0  0  0
   -0.1486   -8.0248    0.0000 C   0  0  0  0  0  0  0  0  0  0  0  0
   -1.4540   -8.6060    0.0000 N   0  0  0  0  0  0  0  0  0  0  0  0
   -1.9389   -9.2734    0.0000 C   0  0  0  0  0  0  0  0  0  0  0  0
   -2.7594   -9.1872    0.0000 C   0  0  0  0  0  0  0  0  0  0  0  0
   -3.0950   -8.4335    0.0000 N   0  0  0  0  0  0  0  0  0  0  0  0
   -2.6100   -7.7661    0.0000 C   0  0  0  0  0  0  0  0  0  0  0  0
   -1.7896   -7.8523    0.0000 C   0  0  0  0  0  0  0  0  0  0  0  0
   -3.9154   -8.3473    0.0000 C   0  0  0  0  0  0  0  0  0  0  0  0
   -4.4004   -9.0147    0.0000 C   0  0  0  0  0  0  0  0  0  0  0  0
   -4.2510   -7.5936    0.0000 O   0  0  0  0  0  0  0  0  0  0  0  0
    2.4622   -6.8624    0.0000 N   0  0  0  0  0  0  0  0  0  0  0  0
  1  2  1  0  0  0  0
  2  3  1  0  0  0  0
  3  4  4  0  0  0  0
  4  5  4  0  0  0  0
  5  6  1  0  0  0  0
  6  7  1  0  0  0  0
  6  8  1  0  0  0  0
  5  9  4  0  0  0  0
  9 10  4  0  0  0  0
  3 10  4  0  0  0  0
  9 11  1  0  0  0  0
 11 12  4  0  0  0  0
 12 13  4  0  0  0  0
 13 14  4  0  0  0  0
 14 15  4  0  0  0  0
 15 16  1  0  0  0  0
 16 17  1  0  0  0  0
 17 18  4  0  0  0  0
 18 19  4  0  0  0  0
 19 20  4  0  0  0  0
 20 21  4  0  0  0  0
 21 22  4  0  0  0  0
 17 22  4  0  0  0  0
 21 23  1  0  0  0  0
 23 24  1  0  0  0  0
 24 25  1  0  0  0  0
 25 26  1  0  0  0  0
 26 27  1  0  0  0  0
 27 28  1  0  0  0  0
 23 28  1  0  0  0  0
 26 29  1  0  0  0  0
 29 30  1  0  0  0  0
 29 31  2  0  0  0  0
 15 32  4  0  0  0  0
 11 32  4  0  0  0  0
M  END
> <BindingDB_ID/CHEMBL_ID>
50570312

> <pKi>
6.2

> <Target Name>
Cyclin-A2/Cyclin-dependent kinase 2

> <Target Source Organism>
Homo sapiens

> <Target Uniprot>
P24941

> <Article DOI>
10.1016/j.ejmech.2021.113244

$$$$

  Mrv2316 09262419122D          

 30 33  0  0  0  0            999 V2000
    4.8946   -3.7741    0.0000 C   0  0  0  0  0  0  0  0  0  0  0  0
    4.1801   -4.1866    0.0000 N   0  0  0  0  0  0  0  0  0  0  0  0
    4.1801   -5.0116    0.0000 C   0  0  0  0  0  0  0  0  0  0  0  0
    4.8476   -5.4965    0.0000 N   0  0  0  0  0  0  0  0  0  0  0  0
    4.5926   -6.2812    0.0000 C   0  0  0  0  0  0  0  0  0  0  0  0
    5.0775   -6.9486    0.0000 C   0  0  0  0  0  0  0  0  0  0  0  0
    3.7676   -6.2812    0.0000 C   0  0  0  0  0  0  0  0  0  0  0  0
    3.5127   -5.4965    0.0000 S   0  0  0  0  0  0  0  0  0  0  0  0
    3.2827   -6.9486    0.0000 C   0  0  0  0  0  0  0  0  0  0  0  0
    3.6183   -7.7023    0.0000 C   0  0  0  0  0  0  0  0  0  0  0  0
    3.1333   -8.3697    0.0000 C   0  0  0  0  0  0  0  0  0  0  0  0
    2.3129   -8.2835    0.0000 N   0  0  0  0  0  0  0  0  0  0  0  0
    1.9773   -7.5298    0.0000 C   0  0  0  0  0  0  0  0  0  0  0  0
    1.1568   -7.4436    0.0000 N   0  0  0  0  0  0  0  0  0  0  0  0
    0.6719   -8.1110    0.0000 C   0  0  0  0  0  0  0  0  0  0  0  0
    1.0074   -8.8647    0.0000 C   0  0  0  0  0  0  0  0  0  0  0  0
    0.5225   -9.5321    0.0000 C   0  0  0  0  0  0  0  0  0  0  0  0
   -0.2980   -9.4459    0.0000 C   0  0  0  0  0  0  0  0  0  0  0  0
   -0.6335   -8.6922    0.0000 C   0  0  0  0  0  0  0  0  0  0  0  0
   -0.1486   -8.0248    0.0000 C   0  0  0  0  0  0  0  0  0  0  0  0
   -1.4540   -8.6060    0.0000 N   0  0  0  0  0  0  0  0  0  0  0  0
   -1.9389   -9.2734    0.0000 C   0  0  0  0  0  0  0  0  0  0  0  0
   -2.7594   -9.1872    0.0000 C   0  0  0  0  0  0  0  0  0  0  0  0
   -3.0950   -8.4335    0.0000 N   0  0  0  0  0  0  0  0  0  0  0  0
   -2.6100   -7.7661    0.0000 C   0  0  0  0  0  0  0  0  0  0  0  0
   -1.7896   -7.8523    0.0000 C   0  0  0  0  0  0  0  0  0  0  0  0
   -3.9154   -8.3473    0.0000 C   0  0  0  0  0  0  0  0  0  0  0  0
   -4.4004   -9.0147    0.0000 C   0  0  0  0  0  0  0  0  0  0  0  0
   -4.2510   -7.5936    0.0000 O   0  0  0  0  0  0  0  0  0  0  0  0
    2.4622   -6.8624    0.0000 N   0  0  0  0  0  0  0  0  0  0  0  0
  1  2  1  0  0  0  0
  2  3  1  0  0  0  0
  3  4  4  0  0  0  0
  4  5  4  0  0  0  0
  5  6  1  0  0  0  0
  5  7  4  0  0  0  0
  7  8  4  0  0  0  0
  3  8  4  0  0  0  0
  7  9  1  0  0  0  0
  9 10  4  0  0  0  0
 10 11  4  0  0  0  0
 11 12  4  0  0  0  0
 12 13  4  0  0  0  0
 13 14  1  0  0  0  0
 14 15  1  0  0  0  0
 15 16  4  0  0  0  0
 16 17  4  0  0  0  0
 17 18  4  0  0  0  0
 18 19  4  0  0  0  0
 19 20  4  0  0  0  0
 15 20  4  0  0  0  0
 19 21  1  0  0  0  0
 21 22  1  0  0  0  0
 22 23  1  0  0  0  0
 23 24  1  0  0  0  0
 24 25  1  0  0  0  0
 25 26  1  0  0  0  0
 21 26  1  0  0  0  0
 24 27  1  0  0  0  0
 27 28  1  0  0  0  0
 27 29  2  0  0  0  0
 13 30  4  0  0  0  0
  9 30  4  0  0  0  0
M  END
> <BindingDB_ID/CHEMBL_ID>
50570313

> <pKi>
6.6

> <Target Name>
Cyclin-A2/Cyclin-dependent kinase 2

> <Target Source Organism>
Homo sapiens

> <Target Uniprot>
P24941

> <Article DOI>
10.1016/j.ejmech.2021.113244

$$$$

  Mrv2316 09262419122D          

 30 33  0  0  0  0            999 V2000
   -0.4126   -3.6078    0.0000 C   0  0  0  0  0  0  0  0  0  0  0  0
   -1.1271   -4.0203    0.0000 N   0  0  0  0  0  0  0  0  0  0  0  0
   -1.1271   -4.8453    0.0000 C   0  0  0  0  0  0  0  0  0  0  0  0
   -0.4596   -5.3303    0.0000 N   0  0  0  0  0  0  0  0  0  0  0  0
   -0.7146   -6.1149    0.0000 C   0  0  0  0  0  0  0  0  0  0  0  0
   -0.2297   -6.7823    0.0000 C   0  0  0  0  0  0  0  0  0  0  0  0
   -1.5396   -6.1149    0.0000 C   0  0  0  0  0  0  0  0  0  0  0  0
   -1.7945   -5.3303    0.0000 S   0  0  0  0  0  0  0  0  0  0  0  0
   -2.0245   -6.7823    0.0000 C   0  0  0  0  0  0  0  0  0  0  0  0
   -1.6889   -7.5360    0.0000 N   0  0  0  0  0  0  0  0  0  0  0  0
   -2.1739   -8.2034    0.0000 C   0  0  0  0  0  0  0  0  0  0  0  0
   -1.8383   -8.9571    0.0000 N   0  0  0  0  0  0  0  0  0  0  0  0
   -1.0178   -9.0433    0.0000 C   0  0  0  0  0  0  0  0  0  0  0  0
   -0.5329   -8.3759    0.0000 C   0  0  0  0  0  0  0  0  0  0  0  0
    0.2876   -8.4621    0.0000 C   0  0  0  0  0  0  0  0  0  0  0  0
    0.6231   -9.2158    0.0000 C   0  0  0  0  0  0  0  0  0  0  0  0
    0.1382   -9.8833    0.0000 C   0  0  0  0  0  0  0  0  0  0  0  0
   -0.6823   -9.7970    0.0000 C   0  0  0  0  0  0  0  0  0  0  0  0
    0.4738  -10.6369    0.0000 N   0  0  0  0  0  0  0  0  0  0  0  0
    1.2984  -10.6616    0.0000 C   0  0  0  0  0  0  0  0  0  0  0  0
    1.7933  -11.3217    0.0000 C   0  0  0  0  0  0  0  0  0  0  0  0
    1.5857  -12.1202    0.0000 C   0  0  0  0  0  0  0  0  0  0  0  0
    0.8320  -12.4557    0.0000 C   0  0  0  0  0  0  0  0  0  0  0  0
    0.0998  -12.0757    0.0000 C   0  0  0  0  0  0  0  0  0  0  0  0
   -0.0597  -11.2663    0.0000 C   0  0  0  0  0  0  0  0  0  0  0  0
   -2.9943   -8.1172    0.0000 N   0  0  0  0  0  0  0  0  0  0  0  0
   -3.3299   -7.3635    0.0000 C   0  0  0  0  0  0  0  0  0  0  0  0
   -2.8450   -6.6961    0.0000 C   0  0  0  0  0  0  0  0  0  0  0  0
   -3.1805   -5.9424    0.0000 C   0  0  0  0  0  0  0  0  0  0  0  0
   -3.5161   -5.1887    0.0000 N   0  0  0  0  0  0  0  0  0  0  0  0
  1  2  1  0  0  0  0
  2  3  1  0  0  0  0
  3  4  4  0  0  0  0
  4  5  4  0  0  0  0
  5  6  1  0  0  0  0
  5  7  4  0  0  0  0
  7  8  4  0  0  0  0
  3  8  4  0  0  0  0
  7  9  1  0  0  0  0
  9 10  4  0  0  0  0
 10 11  4  0  0  0  0
 11 12  1  0  0  0  0
 12 13  1  0  0  0  0
 13 14  4  0  0  0  0
 14 15  4  0  0  0  0
 15 16  4  0  0  0  0
 16 17  4  0  0  0  0
 17 18  4  0  0  0  0
 13 18  4  0  0  0  0
 17 19  1  0  0  0  0
 19 20  1  0  0  0  0
 20 21  1  0  0  0  0
 21 22  1  0  0  0  0
 22 23  1  0  0  0  0
 23 24  1  0  0  0  0
 24 25  1  0  0  0  0
 19 25  1  0  0  0  0
 11 26  4  0  0  0  0
 26 27  4  0  0  0  0
 27 28  4  0  0  0  0
  9 28  4  0  0  0  0
 28 29  1  0  0  0  0
 29 30  3  0  0  0  0
M  END
> <BindingDB_ID/CHEMBL_ID>
50570314

> <pKi>
7.4

> <Target Name>
Cyclin-A2/Cyclin-dependent kinase 2

> <Target Source Organism>
Homo sapiens

> <Target Uniprot>
P24941

> <Article DOI>
10.1016/j.ejmech.2021.113244

$$$$

  Mrv2316 09262419122D          

 31 34  0  0  0  0            999 V2000
   -0.4126   -3.6078    0.0000 C   0  0  0  0  0  0  0  0  0  0  0  0
   -1.1271   -4.0203    0.0000 N   0  0  0  0  0  0  0  0  0  0  0  0
   -1.1271   -4.8453    0.0000 C   0  0  0  0  0  0  0  0  0  0  0  0
   -0.4596   -5.3303    0.0000 N   0  0  0  0  0  0  0  0  0  0  0  0
   -0.7146   -6.1149    0.0000 C   0  0  0  0  0  0  0  0  0  0  0  0
   -0.2297   -6.7823    0.0000 C   0  0  0  0  0  0  0  0  0  0  0  0
   -1.5396   -6.1149    0.0000 C   0  0  0  0  0  0  0  0  0  0  0  0
   -1.7945   -5.3303    0.0000 S   0  0  0  0  0  0  0  0  0  0  0  0
   -2.0245   -6.7823    0.0000 C   0  0  0  0  0  0  0  0  0  0  0  0
   -1.6889   -7.5360    0.0000 N   0  0  0  0  0  0  0  0  0  0  0  0
   -2.1739   -8.2034    0.0000 C   0  0  0  0  0  0  0  0  0  0  0  0
   -1.8383   -8.9571    0.0000 N   0  0  0  0  0  0  0  0  0  0  0  0
   -1.0178   -9.0433    0.0000 C   0  0  0  0  0  0  0  0  0  0  0  0
   -0.5329   -8.3759    0.0000 C   0  0  0  0  0  0  0  0  0  0  0  0
    0.2876   -8.4621    0.0000 C   0  0  0  0  0  0  0  0  0  0  0  0
    0.7725   -7.7947    0.0000 C   0  0  0  0  0  0  0  0  0  0  0  0
    0.6231   -9.2158    0.0000 C   0  0  0  0  0  0  0  0  0  0  0  0
    0.1382   -9.8833    0.0000 C   0  0  0  0  0  0  0  0  0  0  0  0
   -0.6823   -9.7970    0.0000 C   0  0  0  0  0  0  0  0  0  0  0  0
    0.4738  -10.6369    0.0000 N   0  0  0  0  0  0  0  0  0  0  0  0
    1.2984  -10.6616    0.0000 C   0  0  0  0  0  0  0  0  0  0  0  0
    1.7933  -11.3217    0.0000 C   0  0  0  0  0  0  0  0  0  0  0  0
    1.5857  -12.1202    0.0000 C   0  0  0  0  0  0  0  0  0  0  0  0
    0.8320  -12.4557    0.0000 C   0  0  0  0  0  0  0  0  0  0  0  0
    0.0998  -12.0757    0.0000 C   0  0  0  0  0  0  0  0  0  0  0  0
   -0.0597  -11.2663    0.0000 C   0  0  0  0  0  0  0  0  0  0  0  0
   -2.9943   -8.1172    0.0000 N   0  0  0  0  0  0  0  0  0  0  0  0
   -3.3299   -7.3635    0.0000 C   0  0  0  0  0  0  0  0  0  0  0  0
   -2.8450   -6.6961    0.0000 C   0  0  0  0  0  0  0  0  0  0  0  0
   -3.1805   -5.9424    0.0000 C   0  0  0  0  0  0  0  0  0  0  0  0
   -3.5161   -5.1887    0.0000 N   0  0  0  0  0  0  0  0  0  0  0  0
  1  2  1  0  0  0  0
  2  3  1  0  0  0  0
  3  4  4  0  0  0  0
  4  5  4  0  0  0  0
  5  6  1  0  0  0  0
  5  7  4  0  0  0  0
  7  8  4  0  0  0  0
  3  8  4  0  0  0  0
  7  9  1  0  0  0  0
  9 10  4  0  0  0  0
 10 11  4  0  0  0  0
 11 12  1  0  0  0  0
 12 13  1  0  0  0  0
 13 14  4  0  0  0  0
 14 15  4  0  0  0  0
 15 16  1  0  0  0  0
 15 17  4  0  0  0  0
 17 18  4  0  0  0  0
 18 19  4  0  0  0  0
 13 19  4  0  0  0  0
 18 20  1  0  0  0  0
 20 21  1  0  0  0  0
 21 22  1  0  0  0  0
 22 23  1  0  0  0  0
 23 24  1  0  0  0  0
 24 25  1  0  0  0  0
 25 26  1  0  0  0  0
 20 26  1  0  0  0  0
 11 27  4  0  0  0  0
 27 28  4  0  0  0  0
 28 29  4  0  0  0  0
  9 29  4  0  0  0  0
 29 30  1  0  0  0  0
 30 31  3  0  0  0  0
M  END
> <BindingDB_ID/CHEMBL_ID>
50570315

> <pKi>
7.3

> <Target Name>
Cyclin-A2/Cyclin-dependent kinase 2

> <Target Source Organism>
Homo sapiens

> <Target Uniprot>
P24941

> <Article DOI>
10.1016/j.ejmech.2021.113244

$$$$

  Mrv2316 09262419122D          

 30 33  0  0  0  0            999 V2000
    0.8212   -3.7741    0.0000 C   0  0  0  0  0  0  0  0  0  0  0  0
    0.1067   -4.1866    0.0000 N   0  0  0  0  0  0  0  0  0  0  0  0
    0.1067   -5.0116    0.0000 C   0  0  0  0  0  0  0  0  0  0  0  0
    0.7741   -5.4965    0.0000 N   0  0  0  0  0  0  0  0  0  0  0  0
    0.5192   -6.2812    0.0000 C   0  0  0  0  0  0  0  0  0  0  0  0
    1.0041   -6.9486    0.0000 C   0  0  0  0  0  0  0  0  0  0  0  0
   -0.3058   -6.2812    0.0000 C   0  0  0  0  0  0  0  0  0  0  0  0
   -0.5607   -5.4965    0.0000 S   0  0  0  0  0  0  0  0  0  0  0  0
   -0.7907   -6.9486    0.0000 C   0  0  0  0  0  0  0  0  0  0  0  0
   -0.4552   -7.7023    0.0000 N   0  0  0  0  0  0  0  0  0  0  0  0
   -0.9401   -8.3697    0.0000 C   0  0  0  0  0  0  0  0  0  0  0  0
   -0.6045   -9.1234    0.0000 N   0  0  0  0  0  0  0  0  0  0  0  0
    0.2160   -9.2096    0.0000 C   0  0  0  0  0  0  0  0  0  0  0  0
    0.7009   -8.5422    0.0000 C   0  0  0  0  0  0  0  0  0  0  0  0
    1.5214   -8.6284    0.0000 C   0  0  0  0  0  0  0  0  0  0  0  0
    2.0063   -7.9610    0.0000 C   0  0  0  0  0  0  0  0  0  0  0  0
    1.8569   -9.3821    0.0000 C   0  0  0  0  0  0  0  0  0  0  0  0
    1.3720  -10.0495    0.0000 C   0  0  0  0  0  0  0  0  0  0  0  0
    0.5515   -9.9633    0.0000 C   0  0  0  0  0  0  0  0  0  0  0  0
    1.7076  -10.8032    0.0000 N   0  0  0  0  0  0  0  0  0  0  0  0
    2.5280  -10.8894    0.0000 C   0  0  0  0  0  0  0  0  0  0  0  0
    2.8636  -11.6431    0.0000 C   0  0  0  0  0  0  0  0  0  0  0  0
    2.3787  -12.3106    0.0000 N   0  0  0  0  0  0  0  0  0  0  0  0
    1.5582  -12.2243    0.0000 C   0  0  0  0  0  0  0  0  0  0  0  0
    1.2226  -11.4706    0.0000 C   0  0  0  0  0  0  0  0  0  0  0  0
   -1.7606   -8.2835    0.0000 N   0  0  0  0  0  0  0  0  0  0  0  0
   -2.0961   -7.5298    0.0000 C   0  0  0  0  0  0  0  0  0  0  0  0
   -1.6112   -6.8624    0.0000 C   0  0  0  0  0  0  0  0  0  0  0  0
   -1.9468   -6.1087    0.0000 C   0  0  0  0  0  0  0  0  0  0  0  0
   -2.2823   -5.3550    0.0000 N   0  0  0  0  0  0  0  0  0  0  0  0
  1  2  1  0  0  0  0
  2  3  1  0  0  0  0
  3  4  4  0  0  0  0
  4  5  4  0  0  0  0
  5  6  1  0  0  0  0
  5  7  4  0  0  0  0
  7  8  4  0  0  0  0
  3  8  4  0  0  0  0
  7  9  1  0  0  0  0
  9 10  4  0  0  0  0
 10 11  4  0  0  0  0
 11 12  1  0  0  0  0
 12 13  1  0  0  0  0
 13 14  4  0  0  0  0
 14 15  4  0  0  0  0
 15 16  1  0  0  0  0
 15 17  4  0  0  0  0
 17 18  4  0  0  0  0
 18 19  4  0  0  0  0
 13 19  4  0  0  0  0
 18 20  1  0  0  0  0
 20 21  1  0  0  0  0
 21 22  1  0  0  0  0
 22 23  1  0  0  0  0
 23 24  1  0  0  0  0
 24 25  1  0  0  0  0
 20 25  1  0  0  0  0
 11 26  4  0  0  0  0
 26 27  4  0  0  0  0
 27 28  4  0  0  0  0
  9 28  4  0  0  0  0
 28 29  1  0  0  0  0
 29 30  3  0  0  0  0
M  END
> <BindingDB_ID/CHEMBL_ID>
50570316

> <pKi>
7.3

> <Target Name>
Cyclin-A2/Cyclin-dependent kinase 2

> <Target Source Organism>
Homo sapiens

> <Target Uniprot>
P24941

> <Article DOI>
10.1016/j.ejmech.2021.113244

$$$$

  Mrv2316 09262419122D          

 30 33  0  0  0  0            999 V2000
    0.8212   -3.7741    0.0000 C   0  0  0  0  0  0  0  0  0  0  0  0
    0.1067   -4.1866    0.0000 N   0  0  0  0  0  0  0  0  0  0  0  0
    0.1067   -5.0116    0.0000 C   0  0  0  0  0  0  0  0  0  0  0  0
    0.7741   -5.4965    0.0000 N   0  0  0  0  0  0  0  0  0  0  0  0
    0.5192   -6.2812    0.0000 C   0  0  0  0  0  0  0  0  0  0  0  0
    1.0041   -6.9486    0.0000 C   0  0  0  0  0  0  0  0  0  0  0  0
   -0.3058   -6.2812    0.0000 C   0  0  0  0  0  0  0  0  0  0  0  0
   -0.5607   -5.4965    0.0000 S   0  0  0  0  0  0  0  0  0  0  0  0
   -0.7907   -6.9486    0.0000 C   0  0  0  0  0  0  0  0  0  0  0  0
   -0.4552   -7.7023    0.0000 N   0  0  0  0  0  0  0  0  0  0  0  0
   -0.9401   -8.3697    0.0000 C   0  0  0  0  0  0  0  0  0  0  0  0
   -0.6045   -9.1234    0.0000 N   0  0  0  0  0  0  0  0  0  0  0  0
    0.2160   -9.2096    0.0000 C   0  0  0  0  0  0  0  0  0  0  0  0
    0.7009   -8.5422    0.0000 C   0  0  0  0  0  0  0  0  0  0  0  0
    1.5214   -8.6284    0.0000 C   0  0  0  0  0  0  0  0  0  0  0  0
    2.0063   -7.9610    0.0000 C   0  0  0  0  0  0  0  0  0  0  0  0
    1.8569   -9.3821    0.0000 C   0  0  0  0  0  0  0  0  0  0  0  0
    1.3720  -10.0495    0.0000 C   0  0  0  0  0  0  0  0  0  0  0  0
    0.5515   -9.9633    0.0000 C   0  0  0  0  0  0  0  0  0  0  0  0
    1.7076  -10.8032    0.0000 N   0  0  0  0  0  0  0  0  0  0  0  0
    2.5280  -10.8894    0.0000 C   0  0  0  0  0  0  0  0  0  0  0  0
    2.8636  -11.6431    0.0000 C   0  0  0  0  0  0  0  0  0  0  0  0
    2.3787  -12.3106    0.0000 O   0  0  0  0  0  0  0  0  0  0  0  0
    1.5582  -12.2243    0.0000 C   0  0  0  0  0  0  0  0  0  0  0  0
    1.2226  -11.4706    0.0000 C   0  0  0  0  0  0  0  0  0  0  0  0
   -1.7606   -8.2835    0.0000 N   0  0  0  0  0  0  0  0  0  0  0  0
   -2.0961   -7.5298    0.0000 C   0  0  0  0  0  0  0  0  0  0  0  0
   -1.6112   -6.8624    0.0000 C   0  0  0  0  0  0  0  0  0  0  0  0
   -1.9468   -6.1087    0.0000 C   0  0  0  0  0  0  0  0  0  0  0  0
   -2.2823   -5.3550    0.0000 N   0  0  0  0  0  0  0  0  0  0  0  0
  1  2  1  0  0  0  0
  2  3  1  0  0  0  0
  3  4  4  0  0  0  0
  4  5  4  0  0  0  0
  5  6  1  0  0  0  0
  5  7  4  0  0  0  0
  7  8  4  0  0  0  0
  3  8  4  0  0  0  0
  7  9  1  0  0  0  0
  9 10  4  0  0  0  0
 10 11  4  0  0  0  0
 11 12  1  0  0  0  0
 12 13  1  0  0  0  0
 13 14  4  0  0  0  0
 14 15  4  0  0  0  0
 15 16  1  0  0  0  0
 15 17  4  0  0  0  0
 17 18  4  0  0  0  0
 18 19  4  0  0  0  0
 13 19  4  0  0  0  0
 18 20  1  0  0  0  0
 20 21  1  0  0  0  0
 21 22  1  0  0  0  0
 22 23  1  0  0  0  0
 23 24  1  0  0  0  0
 24 25  1  0  0  0  0
 20 25  1  0  0  0  0
 11 26  4  0  0  0  0
 26 27  4  0  0  0  0
 27 28  4  0  0  0  0
  9 28  4  0  0  0  0
 28 29  1  0  0  0  0
 29 30  3  0  0  0  0
M  END
> <BindingDB_ID/CHEMBL_ID>
50570317

> <pKi>
7.8

> <Target Name>
Cyclin-A2/Cyclin-dependent kinase 2

> <Target Source Organism>
Homo sapiens

> <Target Uniprot>
P24941

> <Article DOI>
10.1016/j.ejmech.2021.113244

$$$$

  Mrv2316 09262419122D          

 33 37  0  0  0  0            999 V2000
   -3.4656   -1.2991    0.0000 C   0  0  0  0  0  0  0  0  0  0  0  0
   -4.1801   -1.7116    0.0000 N   0  0  0  0  0  0  0  0  0  0  0  0
   -4.1801   -2.5366    0.0000 C   0  0  0  0  0  0  0  0  0  0  0  0
   -3.5127   -3.0215    0.0000 N   0  0  0  0  0  0  0  0  0  0  0  0
   -3.7676   -3.8062    0.0000 C   0  0  0  0  0  0  0  0  0  0  0  0
   -3.2827   -4.4736    0.0000 C   0  0  0  0  0  0  0  0  0  0  0  0
   -4.5926   -3.8062    0.0000 C   0  0  0  0  0  0  0  0  0  0  0  0
   -4.8476   -3.0215    0.0000 S   0  0  0  0  0  0  0  0  0  0  0  0
   -5.0775   -4.4736    0.0000 C   0  0  0  0  0  0  0  0  0  0  0  0
   -4.7420   -5.2273    0.0000 C   0  0  0  0  0  0  0  0  0  0  0  0
   -5.2269   -5.8947    0.0000 C   0  0  0  0  0  0  0  0  0  0  0  0
   -6.0474   -5.8085    0.0000 N   0  0  0  0  0  0  0  0  0  0  0  0
   -6.3829   -5.0548    0.0000 C   0  0  0  0  0  0  0  0  0  0  0  0
   -7.2034   -4.9686    0.0000 N   0  0  0  0  0  0  0  0  0  0  0  0
   -7.6883   -5.6360    0.0000 C   0  0  0  0  0  0  0  0  0  0  0  0
   -7.3528   -6.3897    0.0000 C   0  0  0  0  0  0  0  0  0  0  0  0
   -7.8377   -7.0571    0.0000 C   0  0  0  0  0  0  0  0  0  0  0  0
   -8.6582   -6.9709    0.0000 C   0  0  0  0  0  0  0  0  0  0  0  0
   -8.9938   -6.2172    0.0000 C   0  0  0  0  0  0  0  0  0  0  0  0
   -8.5088   -5.5498    0.0000 C   0  0  0  0  0  0  0  0  0  0  0  0
   -9.8142   -6.1310    0.0000 N   0  0  0  0  0  0  0  0  0  0  0  0
  -10.2992   -6.7984    0.0000 C   0  0  0  0  0  0  0  0  0  0  0  0
  -11.1196   -6.7122    0.0000 C   0  0  0  0  0  0  0  0  0  0  0  0
  -11.4552   -5.9585    0.0000 O   0  0  0  0  0  0  0  0  0  0  0  0
  -10.9703   -5.2911    0.0000 C   0  0  0  0  0  0  0  0  0  0  0  0
  -10.1498   -5.3773    0.0000 C   0  0  0  0  0  0  0  0  0  0  0  0
   -7.5022   -7.8108    0.0000 N   0  0  0  0  0  0  0  0  0  0  0  0
   -6.6817   -7.8970    0.0000 C   0  0  0  0  0  0  0  0  0  0  0  0
   -6.3461   -8.6507    0.0000 C   0  0  0  0  0  0  0  0  0  0  0  0
   -6.8310   -9.3181    0.0000 O   0  0  0  0  0  0  0  0  0  0  0  0
   -7.6515   -9.2319    0.0000 C   0  0  0  0  0  0  0  0  0  0  0  0
   -7.9871   -8.4782    0.0000 C   0  0  0  0  0  0  0  0  0  0  0  0
   -5.8980   -4.3874    0.0000 N   0  0  0  0  0  0  0  0  0  0  0  0
  1  2  1  0  0  0  0
  2  3  1  0  0  0  0
  3  4  4  0  0  0  0
  4  5  4  0  0  0  0
  5  6  1  0  0  0  0
  5  7  4  0  0  0  0
  7  8  4  0  0  0  0
  3  8  4  0  0  0  0
  7  9  1  0  0  0  0
  9 10  4  0  0  0  0
 10 11  4  0  0  0  0
 11 12  4  0  0  0  0
 12 13  4  0  0  0  0
 13 14  1  0  0  0  0
 14 15  1  0  0  0  0
 15 16  4  0  0  0  0
 16 17  4  0  0  0  0
 17 18  4  0  0  0  0
 18 19  4  0  0  0  0
 19 20  4  0  0  0  0
 15 20  4  0  0  0  0
 19 21  1  0  0  0  0
 21 22  1  0  0  0  0
 22 23  1  0  0  0  0
 23 24  1  0  0  0  0
 24 25  1  0  0  0  0
 25 26  1  0  0  0  0
 21 26  1  0  0  0  0
 17 27  1  0  0  0  0
 27 28  1  0  0  0  0
 28 29  1  0  0  0  0
 29 30  1  0  0  0  0
 30 31  1  0  0  0  0
 31 32  1  0  0  0  0
 27 32  1  0  0  0  0
 13 33  4  0  0  0  0
  9 33  4  0  0  0  0
M  END
> <BindingDB_ID/CHEMBL_ID>
50570318

> <pKi>
6.1

> <Target Name>
Cyclin-A2/Cyclin-dependent kinase 2

> <Target Source Organism>
Homo sapiens

> <Target Uniprot>
P24941

> <Article DOI>
10.1016/j.ejmech.2021.113244

$$$$

  Mrv2316 09262419122D          

 39 43  0  0  0  0            999 V2000
   -3.4656   -1.2991    0.0000 C   0  0  0  0  0  0  0  0  0  0  0  0
   -4.1801   -1.7116    0.0000 N   0  0  0  0  0  0  0  0  0  0  0  0
   -4.1801   -2.5366    0.0000 C   0  0  0  0  0  0  0  0  0  0  0  0
   -3.5127   -3.0215    0.0000 N   0  0  0  0  0  0  0  0  0  0  0  0
   -3.7676   -3.8062    0.0000 C   0  0  0  0  0  0  0  0  0  0  0  0
   -3.2827   -4.4736    0.0000 C   0  0  0  0  0  0  0  0  0  0  0  0
   -4.5926   -3.8062    0.0000 C   0  0  0  0  0  0  0  0  0  0  0  0
   -4.8476   -3.0215    0.0000 S   0  0  0  0  0  0  0  0  0  0  0  0
   -5.0775   -4.4736    0.0000 C   0  0  0  0  0  0  0  0  0  0  0  0
   -4.7420   -5.2273    0.0000 C   0  0  0  0  0  0  0  0  0  0  0  0
   -5.2269   -5.8947    0.0000 C   0  0  0  0  0  0  0  0  0  0  0  0
   -6.0474   -5.8085    0.0000 N   0  0  0  0  0  0  0  0  0  0  0  0
   -6.3829   -5.0548    0.0000 C   0  0  0  0  0  0  0  0  0  0  0  0
   -7.2034   -4.9686    0.0000 N   0  0  0  0  0  0  0  0  0  0  0  0
   -7.6883   -5.6360    0.0000 C   0  0  0  0  0  0  0  0  0  0  0  0
   -7.3528   -6.3897    0.0000 C   0  0  0  0  0  0  0  0  0  0  0  0
   -7.8377   -7.0571    0.0000 C   0  0  0  0  0  0  0  0  0  0  0  0
   -8.6582   -6.9709    0.0000 C   0  0  0  0  0  0  0  0  0  0  0  0
   -8.9938   -6.2172    0.0000 C   0  0  0  0  0  0  0  0  0  0  0  0
   -8.5088   -5.5498    0.0000 C   0  0  0  0  0  0  0  0  0  0  0  0
   -9.8142   -6.1310    0.0000 N   0  0  0  0  0  0  0  0  0  0  0  0
  -10.2992   -6.7984    0.0000 C   0  0  0  0  0  0  0  0  0  0  0  0
  -11.1196   -6.7122    0.0000 C   0  0  0  0  0  0  0  0  0  0  0  0
  -11.4552   -5.9585    0.0000 N   0  0  0  0  0  0  0  0  0  0  0  0
  -10.9703   -5.2911    0.0000 C   0  0  0  0  0  0  0  0  0  0  0  0
  -10.1498   -5.3773    0.0000 C   0  0  0  0  0  0  0  0  0  0  0  0
  -12.2757   -5.8723    0.0000 C   0  0  0  0  0  0  0  0  0  0  0  0
  -12.7606   -6.5397    0.0000 C   0  0  0  0  0  0  0  0  0  0  0  0
  -12.6112   -5.1186    0.0000 O   0  0  0  0  0  0  0  0  0  0  0  0
   -7.5022   -7.8108    0.0000 N   0  0  0  0  0  0  0  0  0  0  0  0
   -6.6817   -7.8970    0.0000 C   0  0  0  0  0  0  0  0  0  0  0  0
   -6.3461   -8.6507    0.0000 C   0  0  0  0  0  0  0  0  0  0  0  0
   -6.8310   -9.3181    0.0000 N   0  0  0  0  0  0  0  0  0  0  0  0
   -7.6515   -9.2319    0.0000 C   0  0  0  0  0  0  0  0  0  0  0  0
   -7.9871   -8.4782    0.0000 C   0  0  0  0  0  0  0  0  0  0  0  0
   -6.4955  -10.0718    0.0000 C   0  0  0  0  0  0  0  0  0  0  0  0
   -6.9804  -10.7392    0.0000 C   0  0  0  0  0  0  0  0  0  0  0  0
   -5.6750  -10.1580    0.0000 O   0  0  0  0  0  0  0  0  0  0  0  0
   -5.8980   -4.3874    0.0000 N   0  0  0  0  0  0  0  0  0  0  0  0
  1  2  1  0  0  0  0
  2  3  1  0  0  0  0
  3  4  4  0  0  0  0
  4  5  4  0  0  0  0
  5  6  1  0  0  0  0
  5  7  4  0  0  0  0
  7  8  4  0  0  0  0
  3  8  4  0  0  0  0
  7  9  1  0  0  0  0
  9 10  4  0  0  0  0
 10 11  4  0  0  0  0
 11 12  4  0  0  0  0
 12 13  4  0  0  0  0
 13 14  1  0  0  0  0
 14 15  1  0  0  0  0
 15 16  4  0  0  0  0
 16 17  4  0  0  0  0
 17 18  4  0  0  0  0
 18 19  4  0  0  0  0
 19 20  4  0  0  0  0
 15 20  4  0  0  0  0
 19 21  1  0  0  0  0
 21 22  1  0  0  0  0
 22 23  1  0  0  0  0
 23 24  1  0  0  0  0
 24 25  1  0  0  0  0
 25 26  1  0  0  0  0
 21 26  1  0  0  0  0
 24 27  1  0  0  0  0
 27 28  1  0  0  0  0
 27 29  2  0  0  0  0
 17 30  1  0  0  0  0
 30 31  1  0  0  0  0
 31 32  1  0  0  0  0
 32 33  1  0  0  0  0
 33 34  1  0  0  0  0
 34 35  1  0  0  0  0
 30 35  1  0  0  0  0
 33 36  1  0  0  0  0
 36 37  1  0  0  0  0
 36 38  2  0  0  0  0
 13 39  4  0  0  0  0
  9 39  4  0  0  0  0
M  END
> <BindingDB_ID/CHEMBL_ID>
50570319

> <pKi>
5.7

> <Target Name>
Cyclin-A2/Cyclin-dependent kinase 2

> <Target Source Organism>
Homo sapiens

> <Target Uniprot>
P24941

> <Article DOI>
10.1016/j.ejmech.2021.113244

$$$$

  Mrv2316 09262419122D          

 35 39  0  0  0  0            999 V2000
   -1.4289    2.2286    0.0000 C   0  0  0  0  0  0  0  0  0  0  0  0
   -2.1434    1.8161    0.0000 N   0  0  0  0  0  0  0  0  0  0  0  0
   -2.1434    0.9911    0.0000 C   0  0  0  0  0  0  0  0  0  0  0  0
   -1.4760    0.5062    0.0000 N   0  0  0  0  0  0  0  0  0  0  0  0
   -1.7309   -0.2785    0.0000 C   0  0  0  0  0  0  0  0  0  0  0  0
   -1.2460   -0.9459    0.0000 C   0  0  0  0  0  0  0  0  0  0  0  0
   -2.5559   -0.2785    0.0000 C   0  0  0  0  0  0  0  0  0  0  0  0
   -2.8109    0.5062    0.0000 S   0  0  0  0  0  0  0  0  0  0  0  0
   -3.0408   -0.9459    0.0000 C   0  0  0  0  0  0  0  0  0  0  0  0
   -2.7053   -1.6996    0.0000 N   0  0  0  0  0  0  0  0  0  0  0  0
   -3.1902   -2.3670    0.0000 C   0  0  0  0  0  0  0  0  0  0  0  0
   -2.8546   -3.1207    0.0000 N   0  0  0  0  0  0  0  0  0  0  0  0
   -2.0342   -3.2069    0.0000 C   0  0  0  0  0  0  0  0  0  0  0  0
   -1.5492   -2.5395    0.0000 C   0  0  0  0  0  0  0  0  0  0  0  0
   -0.7288   -2.6257    0.0000 C   0  0  0  0  0  0  0  0  0  0  0  0
   -0.3932   -3.3794    0.0000 C   0  0  0  0  0  0  0  0  0  0  0  0
   -0.8781   -4.0468    0.0000 C   0  0  0  0  0  0  0  0  0  0  0  0
   -1.6986   -3.9606    0.0000 C   0  0  0  0  0  0  0  0  0  0  0  0
   -0.5426   -4.8005    0.0000 N   0  0  0  0  0  0  0  0  0  0  0  0
    0.2779   -4.8868    0.0000 C   0  0  0  0  0  0  0  0  0  0  0  0
    0.6135   -5.6404    0.0000 C   0  0  0  0  0  0  0  0  0  0  0  0
    0.1285   -6.3079    0.0000 O   0  0  0  0  0  0  0  0  0  0  0  0
   -0.6919   -6.2216    0.0000 C   0  0  0  0  0  0  0  0  0  0  0  0
   -1.0275   -5.4680    0.0000 C   0  0  0  0  0  0  0  0  0  0  0  0
   -0.2438   -1.9583    0.0000 N   0  0  0  0  0  0  0  0  0  0  0  0
   -0.5794   -1.2046    0.0000 C   0  0  0  0  0  0  0  0  0  0  0  0
   -0.0945   -0.5372    0.0000 C   0  0  0  0  0  0  0  0  0  0  0  0
    0.7260   -0.6234    0.0000 O   0  0  0  0  0  0  0  0  0  0  0  0
    1.0616   -1.3771    0.0000 C   0  0  0  0  0  0  0  0  0  0  0  0
    0.5766   -2.0445    0.0000 C   0  0  0  0  0  0  0  0  0  0  0  0
   -4.0107   -2.2808    0.0000 N   0  0  0  0  0  0  0  0  0  0  0  0
   -4.3462   -1.5271    0.0000 C   0  0  0  0  0  0  0  0  0  0  0  0
   -3.8613   -0.8597    0.0000 C   0  0  0  0  0  0  0  0  0  0  0  0
   -4.1969   -0.1060    0.0000 C   0  0  0  0  0  0  0  0  0  0  0  0
   -4.5324    0.6477    0.0000 N   0  0  0  0  0  0  0  0  0  0  0  0
  1  2  1  0  0  0  0
  2  3  1  0  0  0  0
  3  4  4  0  0  0  0
  4  5  4  0  0  0  0
  5  6  1  0  0  0  0
  5  7  4  0  0  0  0
  7  8  4  0  0  0  0
  3  8  4  0  0  0  0
  7  9  1  0  0  0  0
  9 10  4  0  0  0  0
 10 11  4  0  0  0  0
 11 12  1  0  0  0  0
 12 13  1  0  0  0  0
 13 14  4  0  0  0  0
 14 15  4  0  0  0  0
 15 16  4  0  0  0  0
 16 17  4  0  0  0  0
 17 18  4  0  0  0  0
 13 18  4  0  0  0  0
 17 19  1  0  0  0  0
 19 20  1  0  0  0  0
 20 21  1  0  0  0  0
 21 22  1  0  0  0  0
 22 23  1  0  0  0  0
 23 24  1  0  0  0  0
 19 24  1  0  0  0  0
 15 25  1  0  0  0  0
 25 26  1  0  0  0  0
 26 27  1  0  0  0  0
 27 28  1  0  0  0  0
 28 29  1  0  0  0  0
 29 30  1  0  0  0  0
 25 30  1  0  0  0  0
 11 31  4  0  0  0  0
 31 32  4  0  0  0  0
 32 33  4  0  0  0  0
  9 33  4  0  0  0  0
 33 34  1  0  0  0  0
 34 35  3  0  0  0  0
M  END
> <BindingDB_ID/CHEMBL_ID>
50570320

> <pKi>
7.3

> <Target Name>
Cyclin-A2/Cyclin-dependent kinase 2

> <Target Source Organism>
Homo sapiens

> <Target Uniprot>
P24941

> <Article DOI>
10.1016/j.ejmech.2021.113244

$$$$

  Mrv2316 09262419122D          

 41 45  0  0  0  0            999 V2000
   -1.4289    2.2286    0.0000 C   0  0  0  0  0  0  0  0  0  0  0  0
   -2.1434    1.8161    0.0000 N   0  0  0  0  0  0  0  0  0  0  0  0
   -2.1434    0.9911    0.0000 C   0  0  0  0  0  0  0  0  0  0  0  0
   -1.4760    0.5062    0.0000 N   0  0  0  0  0  0  0  0  0  0  0  0
   -1.7309   -0.2785    0.0000 C   0  0  0  0  0  0  0  0  0  0  0  0
   -1.2460   -0.9459    0.0000 C   0  0  0  0  0  0  0  0  0  0  0  0
   -2.5559   -0.2785    0.0000 C   0  0  0  0  0  0  0  0  0  0  0  0
   -2.8109    0.5062    0.0000 S   0  0  0  0  0  0  0  0  0  0  0  0
   -3.0408   -0.9459    0.0000 C   0  0  0  0  0  0  0  0  0  0  0  0
   -2.7053   -1.6996    0.0000 N   0  0  0  0  0  0  0  0  0  0  0  0
   -3.1902   -2.3670    0.0000 C   0  0  0  0  0  0  0  0  0  0  0  0
   -2.8546   -3.1207    0.0000 N   0  0  0  0  0  0  0  0  0  0  0  0
   -2.0342   -3.2069    0.0000 C   0  0  0  0  0  0  0  0  0  0  0  0
   -1.5492   -2.5395    0.0000 C   0  0  0  0  0  0  0  0  0  0  0  0
   -0.7288   -2.6257    0.0000 C   0  0  0  0  0  0  0  0  0  0  0  0
   -0.3932   -3.3794    0.0000 C   0  0  0  0  0  0  0  0  0  0  0  0
   -0.8781   -4.0468    0.0000 C   0  0  0  0  0  0  0  0  0  0  0  0
   -1.6986   -3.9606    0.0000 C   0  0  0  0  0  0  0  0  0  0  0  0
   -0.5426   -4.8005    0.0000 N   0  0  0  0  0  0  0  0  0  0  0  0
    0.2779   -4.8868    0.0000 C   0  0  0  0  0  0  0  0  0  0  0  0
    0.6135   -5.6404    0.0000 C   0  0  0  0  0  0  0  0  0  0  0  0
    0.1285   -6.3079    0.0000 N   0  0  0  0  0  0  0  0  0  0  0  0
   -0.6919   -6.2216    0.0000 C   0  0  0  0  0  0  0  0  0  0  0  0
   -1.0275   -5.4680    0.0000 C   0  0  0  0  0  0  0  0  0  0  0  0
    0.4641   -7.0615    0.0000 C   0  0  0  0  0  0  0  0  0  0  0  0
    1.2846   -7.1478    0.0000 C   0  0  0  0  0  0  0  0  0  0  0  0
   -0.0208   -7.7290    0.0000 O   0  0  0  0  0  0  0  0  0  0  0  0
   -0.2438   -1.9583    0.0000 N   0  0  0  0  0  0  0  0  0  0  0  0
   -0.5794   -1.2046    0.0000 C   0  0  0  0  0  0  0  0  0  0  0  0
   -0.0945   -0.5372    0.0000 C   0  0  0  0  0  0  0  0  0  0  0  0
    0.7260   -0.6234    0.0000 N   0  0  0  0  0  0  0  0  0  0  0  0
    1.0616   -1.3771    0.0000 C   0  0  0  0  0  0  0  0  0  0  0  0
    0.5766   -2.0445    0.0000 C   0  0  0  0  0  0  0  0  0  0  0  0
    1.2109    0.0440    0.0000 C   0  0  0  0  0  0  0  0  0  0  0  0
    2.0314   -0.0422    0.0000 C   0  0  0  0  0  0  0  0  0  0  0  0
    0.8754    0.7977    0.0000 O   0  0  0  0  0  0  0  0  0  0  0  0
   -4.0107   -2.2808    0.0000 N   0  0  0  0  0  0  0  0  0  0  0  0
   -4.3462   -1.5271    0.0000 C   0  0  0  0  0  0  0  0  0  0  0  0
   -3.8613   -0.8597    0.0000 C   0  0  0  0  0  0  0  0  0  0  0  0
   -4.1969   -0.1060    0.0000 C   0  0  0  0  0  0  0  0  0  0  0  0
   -4.5324    0.6477    0.0000 N   0  0  0  0  0  0  0  0  0  0  0  0
  1  2  1  0  0  0  0
  2  3  1  0  0  0  0
  3  4  4  0  0  0  0
  4  5  4  0  0  0  0
  5  6  1  0  0  0  0
  5  7  4  0  0  0  0
  7  8  4  0  0  0  0
  3  8  4  0  0  0  0
  7  9  1  0  0  0  0
  9 10  4  0  0  0  0
 10 11  4  0  0  0  0
 11 12  1  0  0  0  0
 12 13  1  0  0  0  0
 13 14  4  0  0  0  0
 14 15  4  0  0  0  0
 15 16  4  0  0  0  0
 16 17  4  0  0  0  0
 17 18  4  0  0  0  0
 13 18  4  0  0  0  0
 17 19  1  0  0  0  0
 19 20  1  0  0  0  0
 20 21  1  0  0  0  0
 21 22  1  0  0  0  0
 22 23  1  0  0  0  0
 23 24  1  0  0  0  0
 19 24  1  0  0  0  0
 22 25  1  0  0  0  0
 25 26  1  0  0  0  0
 25 27  2  0  0  0  0
 15 28  1  0  0  0  0
 28 29  1  0  0  0  0
 29 30  1  0  0  0  0
 30 31  1  0  0  0  0
 31 32  1  0  0  0  0
 32 33  1  0  0  0  0
 28 33  1  0  0  0  0
 31 34  1  0  0  0  0
 34 35  1  0  0  0  0
 34 36  2  0  0  0  0
 11 37  4  0  0  0  0
 37 38  4  0  0  0  0
 38 39  4  0  0  0  0
  9 39  4  0  0  0  0
 39 40  1  0  0  0  0
 40 41  3  0  0  0  0
M  END
> <BindingDB_ID/CHEMBL_ID>
50570321

> <pKi>
6.6

> <Target Name>
Cyclin-A2/Cyclin-dependent kinase 2

> <Target Source Organism>
Homo sapiens

> <Target Uniprot>
P24941

> <Article DOI>
10.1016/j.ejmech.2021.113244

$$$$

  Mrv2316 09262419122D          

 40 44  0  0  0  0            999 V2000
   -1.4289    2.2286    0.0000 C   0  0  0  0  0  0  0  0  0  0  0  0
   -2.1434    1.8161    0.0000 N   0  0  0  0  0  0  0  0  0  0  0  0
   -2.1434    0.9911    0.0000 C   0  0  0  0  0  0  0  0  0  0  0  0
   -1.4760    0.5062    0.0000 N   0  0  0  0  0  0  0  0  0  0  0  0
   -1.7309   -0.2785    0.0000 C   0  0  0  0  0  0  0  0  0  0  0  0
   -1.2460   -0.9459    0.0000 C   0  0  0  0  0  0  0  0  0  0  0  0
   -2.5559   -0.2785    0.0000 C   0  0  0  0  0  0  0  0  0  0  0  0
   -2.8109    0.5062    0.0000 S   0  0  0  0  0  0  0  0  0  0  0  0
   -3.0408   -0.9459    0.0000 C   0  0  0  0  0  0  0  0  0  0  0  0
   -2.7053   -1.6996    0.0000 N   0  0  0  0  0  0  0  0  0  0  0  0
   -3.1902   -2.3670    0.0000 C   0  0  0  0  0  0  0  0  0  0  0  0
   -2.8546   -3.1207    0.0000 N   0  0  0  0  0  0  0  0  0  0  0  0
   -2.0342   -3.2069    0.0000 C   0  0  0  0  0  0  0  0  0  0  0  0
   -1.5492   -2.5395    0.0000 C   0  0  0  0  0  0  0  0  0  0  0  0
   -0.7288   -2.6257    0.0000 C   0  0  0  0  0  0  0  0  0  0  0  0
   -0.3932   -3.3794    0.0000 C   0  0  0  0  0  0  0  0  0  0  0  0
   -0.8781   -4.0468    0.0000 C   0  0  0  0  0  0  0  0  0  0  0  0
   -1.6986   -3.9606    0.0000 C   0  0  0  0  0  0  0  0  0  0  0  0
   -0.5426   -4.8005    0.0000 N   0  0  0  0  0  0  0  0  0  0  0  0
    0.2779   -4.8868    0.0000 C   0  0  0  0  0  0  0  0  0  0  0  0
    0.6135   -5.6404    0.0000 C   0  0  0  0  0  0  0  0  0  0  0  0
    0.1285   -6.3079    0.0000 N   0  0  0  0  0  0  0  0  0  0  0  0
   -0.6919   -6.2216    0.0000 C   0  0  0  0  0  0  0  0  0  0  0  0
   -1.0275   -5.4680    0.0000 C   0  0  0  0  0  0  0  0  0  0  0  0
    0.4641   -7.0615    0.0000 C   0  0  0  0  0  0  0  0  0  0  0  0
    1.2846   -7.1478    0.0000 C   0  0  0  0  0  0  0  0  0  0  0  0
   -0.0208   -7.7290    0.0000 O   0  0  0  0  0  0  0  0  0  0  0  0
   -0.2438   -1.9583    0.0000 N   0  0  0  0  0  0  0  0  0  0  0  0
   -0.5794   -1.2046    0.0000 C   0  0  0  0  0  0  0  0  0  0  0  0
   -0.0945   -0.5372    0.0000 C   0  0  0  0  0  0  0  0  0  0  0  0
    0.7260   -0.6234    0.0000 N   0  0  0  0  0  0  0  0  0  0  0  0
    1.0616   -1.3771    0.0000 C   0  0  0  0  0  0  0  0  0  0  0  0
    0.5766   -2.0445    0.0000 C   0  0  0  0  0  0  0  0  0  0  0  0
    1.2109    0.0440    0.0000 C   0  0  0  0  0  0  0  0  0  0  0  0
    2.0314   -0.0422    0.0000 C   0  0  0  0  0  0  0  0  0  0  0  0
    0.8754    0.7977    0.0000 O   0  0  0  0  0  0  0  0  0  0  0  0
   -4.0107   -2.2808    0.0000 N   0  0  0  0  0  0  0  0  0  0  0  0
   -4.3462   -1.5271    0.0000 C   0  0  0  0  0  0  0  0  0  0  0  0
   -3.8613   -0.8597    0.0000 C   0  0  0  0  0  0  0  0  0  0  0  0
   -4.1969   -0.1060    0.0000 C   0  0  0  0  0  0  0  0  0  0  0  0
  1  2  1  0  0  0  0
  2  3  1  0  0  0  0
  3  4  4  0  0  0  0
  4  5  4  0  0  0  0
  5  6  1  0  0  0  0
  5  7  4  0  0  0  0
  7  8  4  0  0  0  0
  3  8  4  0  0  0  0
  7  9  1  0  0  0  0
  9 10  4  0  0  0  0
 10 11  4  0  0  0  0
 11 12  1  0  0  0  0
 12 13  1  0  0  0  0
 13 14  4  0  0  0  0
 14 15  4  0  0  0  0
 15 16  4  0  0  0  0
 16 17  4  0  0  0  0
 17 18  4  0  0  0  0
 13 18  4  0  0  0  0
 17 19  1  0  0  0  0
 19 20  1  0  0  0  0
 20 21  1  0  0  0  0
 21 22  1  0  0  0  0
 22 23  1  0  0  0  0
 23 24  1  0  0  0  0
 19 24  1  0  0  0  0
 22 25  1  0  0  0  0
 25 26  1  0  0  0  0
 25 27  2  0  0  0  0
 15 28  1  0  0  0  0
 28 29  1  0  0  0  0
 29 30  1  0  0  0  0
 30 31  1  0  0  0  0
 31 32  1  0  0  0  0
 32 33  1  0  0  0  0
 28 33  1  0  0  0  0
 31 34  1  0  0  0  0
 34 35  1  0  0  0  0
 34 36  2  0  0  0  0
 11 37  4  0  0  0  0
 37 38  4  0  0  0  0
 38 39  4  0  0  0  0
  9 39  4  0  0  0  0
 39 40  1  0  0  0  0
M  END
> <BindingDB_ID/CHEMBL_ID>
50570322

> <pKi>
5.9

> <Target Name>
Cyclin-A2/Cyclin-dependent kinase 2

> <Target Source Organism>
Homo sapiens

> <Target Uniprot>
P24941

> <Article DOI>
10.1016/j.ejmech.2021.113244

$$$$

  Mrv2316 09262419122D          

 24 26  0  0  0  0            999 V2000
    4.1801    0.6402    0.0000 C   0  0  0  0  0  0  0  0  0  0  0  0
    4.1801   -0.1848    0.0000 C   0  0  0  0  0  0  0  0  0  0  0  0
    4.8476   -0.6697    0.0000 N   0  0  0  0  0  0  0  0  0  0  0  0
    4.5926   -1.4544    0.0000 C   0  0  0  0  0  0  0  0  0  0  0  0
    5.0775   -2.1218    0.0000 C   0  0  0  0  0  0  0  0  0  0  0  0
    3.7676   -1.4544    0.0000 C   0  0  0  0  0  0  0  0  0  0  0  0
    3.2827   -2.1218    0.0000 C   0  0  0  0  0  0  0  0  0  0  0  0
    3.6183   -2.8755    0.0000 C   0  0  0  0  0  0  0  0  0  0  0  0
    3.1333   -3.5429    0.0000 C   0  0  0  0  0  0  0  0  0  0  0  0
    2.3129   -3.4567    0.0000 N   0  0  0  0  0  0  0  0  0  0  0  0
    1.9773   -2.7030    0.0000 C   0  0  0  0  0  0  0  0  0  0  0  0
    1.1568   -2.6168    0.0000 N   0  0  0  0  0  0  0  0  0  0  0  0
    0.8213   -1.8631    0.0000 C   0  0  0  0  0  0  0  0  0  0  0  0
    0.0008   -1.7769    0.0000 C   0  0  0  0  0  0  0  0  0  0  0  0
   -0.3348   -1.0232    0.0000 C   0  0  0  0  0  0  0  0  0  0  0  0
    0.1501   -0.3557    0.0000 C   0  0  0  0  0  0  0  0  0  0  0  0
   -0.1854    0.3979    0.0000 C   0  0  0  0  0  0  0  0  0  0  0  0
   -0.5210    1.1516    0.0000 F   0  0  0  0  0  0  0  0  0  0  0  0
    0.5683    0.7335    0.0000 F   0  0  0  0  0  0  0  0  0  0  0  0
   -0.9391    0.0624    0.0000 F   0  0  0  0  0  0  0  0  0  0  0  0
    0.9706   -0.4420    0.0000 C   0  0  0  0  0  0  0  0  0  0  0  0
    1.3062   -1.1957    0.0000 C   0  0  0  0  0  0  0  0  0  0  0  0
    2.4622   -2.0356    0.0000 N   0  0  0  0  0  0  0  0  0  0  0  0
    3.5127   -0.6697    0.0000 S   0  0  0  0  0  0  0  0  0  0  0  0
  1  2  1  0  0  0  0
  2  3  4  0  0  0  0
  3  4  4  0  0  0  0
  4  5  1  0  0  0  0
  4  6  4  0  0  0  0
  6  7  1  0  0  0  0
  7  8  4  0  0  0  0
  8  9  4  0  0  0  0
  9 10  4  0  0  0  0
 10 11  4  0  0  0  0
 11 12  1  0  0  0  0
 12 13  1  0  0  0  0
 13 14  4  0  0  0  0
 14 15  4  0  0  0  0
 15 16  4  0  0  0  0
 16 17  1  0  0  0  0
 17 18  1  0  0  0  0
 17 19  1  0  0  0  0
 17 20  1  0  0  0  0
 16 21  4  0  0  0  0
 21 22  4  0  0  0  0
 13 22  4  0  0  0  0
 11 23  4  0  0  0  0
  7 23  4  0  0  0  0
  6 24  4  0  0  0  0
  2 24  4  0  0  0  0
M  END
> <BindingDB_ID/CHEMBL_ID>
CHEMBL48109

> <pKi>
6.5

> <Target Name>
Cyclin-dependent kinase 2/Cyclin A

> <Target Source Organism>
Homo sapiens

> <Target Uniprot>
P24941

> <Article DOI>
10.1021/jm0309957

$$$$

  Mrv2316 09262419122D          

 23 25  0  0  0  0            999 V2000
    4.1801    0.6402    0.0000 C   0  0  0  0  0  0  0  0  0  0  0  0
    4.1801   -0.1848    0.0000 C   0  0  0  0  0  0  0  0  0  0  0  0
    4.8476   -0.6697    0.0000 N   0  0  0  0  0  0  0  0  0  0  0  0
    4.5926   -1.4544    0.0000 C   0  0  0  0  0  0  0  0  0  0  0  0
    5.0775   -2.1218    0.0000 C   0  0  0  0  0  0  0  0  0  0  0  0
    3.7676   -1.4544    0.0000 C   0  0  0  0  0  0  0  0  0  0  0  0
    3.2827   -2.1218    0.0000 C   0  0  0  0  0  0  0  0  0  0  0  0
    3.6183   -2.8755    0.0000 C   0  0  0  0  0  0  0  0  0  0  0  0
    3.1333   -3.5429    0.0000 C   0  0  0  0  0  0  0  0  0  0  0  0
    2.3129   -3.4567    0.0000 N   0  0  0  0  0  0  0  0  0  0  0  0
    1.9773   -2.7030    0.0000 C   0  0  0  0  0  0  0  0  0  0  0  0
    1.1568   -2.6168    0.0000 N   0  0  0  0  0  0  0  0  0  0  0  0
    0.8213   -1.8631    0.0000 C   0  0  0  0  0  0  0  0  0  0  0  0
    0.0008   -1.7769    0.0000 C   0  0  0  0  0  0  0  0  0  0  0  0
   -0.3348   -1.0232    0.0000 C   0  0  0  0  0  0  0  0  0  0  0  0
    0.1501   -0.3557    0.0000 C   0  0  0  0  0  0  0  0  0  0  0  0
   -0.1854    0.3979    0.0000 N   0  0  0  0  0  0  0  0  0  0  0  0
   -1.0059    0.4842    0.0000 C   0  0  0  0  0  0  0  0  0  0  0  0
    0.2995    1.0654    0.0000 C   0  0  0  0  0  0  0  0  0  0  0  0
    0.9706   -0.4420    0.0000 C   0  0  0  0  0  0  0  0  0  0  0  0
    1.3062   -1.1957    0.0000 C   0  0  0  0  0  0  0  0  0  0  0  0
    2.4622   -2.0356    0.0000 N   0  0  0  0  0  0  0  0  0  0  0  0
    3.5127   -0.6697    0.0000 S   0  0  0  0  0  0  0  0  0  0  0  0
  1  2  1  0  0  0  0
  2  3  4  0  0  0  0
  3  4  4  0  0  0  0
  4  5  1  0  0  0  0
  4  6  4  0  0  0  0
  6  7  1  0  0  0  0
  7  8  4  0  0  0  0
  8  9  4  0  0  0  0
  9 10  4  0  0  0  0
 10 11  4  0  0  0  0
 11 12  1  0  0  0  0
 12 13  1  0  0  0  0
 13 14  4  0  0  0  0
 14 15  4  0  0  0  0
 15 16  4  0  0  0  0
 16 17  1  0  0  0  0
 17 18  1  0  0  0  0
 17 19  1  0  0  0  0
 16 20  4  0  0  0  0
 20 21  4  0  0  0  0
 13 21  4  0  0  0  0
 11 22  4  0  0  0  0
  7 22  4  0  0  0  0
  6 23  4  0  0  0  0
  2 23  4  0  0  0  0
M  END
> <BindingDB_ID/CHEMBL_ID>
CHEMBL46817

> <pKi>
6.6

> <Target Name>
Cyclin-dependent kinase 2/Cyclin A

> <Target Source Organism>
Homo sapiens

> <Target Uniprot>
P24941

> <Article DOI>
10.1021/jm901913s, 10.1021/jm0309957: mean

$$$$

  Mrv2316 09262419122D          

 27 29  0  0  0  0            999 V2000
    2.1434   -3.7125    0.0000 N   0  0  0  0  0  0  0  0  0  0  0  0
    2.8579   -4.1250    0.0000 C   0  0  0  0  0  0  0  0  0  0  0  0
    3.5724   -3.7125    0.0000 O   0  0  0  0  0  0  0  0  0  0  0  0
    2.8579   -4.9500    0.0000 C   0  0  0  0  0  0  0  0  0  0  0  0
    3.5724   -5.3625    0.0000 C   0  0  0  0  0  0  0  0  0  0  0  0
    3.5724   -6.1875    0.0000 C   0  0  0  0  0  0  0  0  0  0  0  0
    2.8579   -6.6000    0.0000 C   0  0  0  0  0  0  0  0  0  0  0  0
    2.8579   -7.4250    0.0000 N   0  0  0  0  0  0  0  0  0  0  0  0
    3.5724   -7.8375    0.0000 C   0  0  0  0  0  0  0  0  0  0  0  0
    4.2868   -7.4250    0.0000 N   0  0  0  0  0  0  0  0  0  0  0  0
    5.0013   -7.8375    0.0000 C   0  0  0  0  0  0  0  0  0  0  0  0
    5.7158   -7.4250    0.0000 N   0  0  0  0  0  0  0  0  0  0  0  0
    5.0013   -8.6625    0.0000 C   0  0  0  0  0  0  0  0  0  0  0  0
    5.7158   -9.0750    0.0000 N   0  0  0  0  0  0  0  0  0  0  0  0
    5.7158   -9.9000    0.0000 O   0  0  0  0  0  0  0  0  0  0  0  0
    4.2868   -9.0750    0.0000 C   0  0  0  0  0  0  0  0  0  0  0  0
    4.2868   -9.9000    0.0000 O   0  0  0  0  0  0  0  0  0  0  0  0
    5.0013  -10.3125    0.0000 C   0  0  0  0  0  0  0  0  0  0  0  0
    5.0013  -11.1375    0.0000 C   0  0  0  0  0  0  0  0  0  0  0  0
    5.7158  -11.5500    0.0000 C   0  0  0  0  0  0  0  0  0  0  0  0
    5.7158  -12.3750    0.0000 C   0  0  0  0  0  0  0  0  0  0  0  0
    5.0013  -12.7875    0.0000 C   0  0  0  0  0  0  0  0  0  0  0  0
    4.2868  -12.3750    0.0000 C   0  0  0  0  0  0  0  0  0  0  0  0
    4.2868  -11.5500    0.0000 C   0  0  0  0  0  0  0  0  0  0  0  0
    3.5724   -8.6625    0.0000 N   0  0  0  0  0  0  0  0  0  0  0  0
    2.1434   -6.1875    0.0000 C   0  0  0  0  0  0  0  0  0  0  0  0
    2.1434   -5.3625    0.0000 C   0  0  0  0  0  0  0  0  0  0  0  0
  1  2  1  0  0  0  0
  2  3  2  0  0  0  0
  2  4  1  0  0  0  0
  4  5  4  0  0  0  0
  5  6  4  0  0  0  0
  6  7  4  0  0  0  0
  7  8  1  0  0  0  0
  8  9  1  0  0  0  0
  9 10  4  0  0  0  0
 10 11  4  0  0  0  0
 11 12  1  0  0  0  0
 11 13  4  0  0  0  0
 13 14  1  0  0  0  0
 14 15  2  0  0  0  0
 13 16  4  0  0  0  0
 16 17  1  0  0  0  0
 17 18  1  0  0  0  0
 18 19  1  0  0  0  0
 19 20  1  0  0  0  0
 20 21  1  0  0  0  0
 21 22  1  0  0  0  0
 22 23  1  0  0  0  0
 23 24  1  0  0  0  0
 19 24  1  0  0  0  0
 16 25  4  0  0  0  0
  9 25  4  0  0  0  0
  7 26  4  0  0  0  0
 26 27  4  0  0  0  0
  4 27  4  0  0  0  0
M  END
> <BindingDB_ID/CHEMBL_ID>
CHEMBL101801

> <pKi>
5.6

> <Target Name>
Cyclin-dependent kinase 2/Cyclin A

> <Target Source Organism>
Homo sapiens

> <Target Uniprot>
P24941

> <Article DOI>
10.1021/jm060190+

$$$$

  Mrv2316 09262419122D          

 30 33  0  0  0  0            999 V2000
   -0.4126   -3.6078    0.0000 C   0  0  0  0  0  0  0  0  0  0  0  0
   -1.1271   -4.0203    0.0000 N   0  0  0  0  0  0  0  0  0  0  0  0
   -1.1271   -4.8453    0.0000 C   0  0  0  0  0  0  0  0  0  0  0  0
   -0.4596   -5.3303    0.0000 N   0  0  0  0  0  0  0  0  0  0  0  0
   -0.7146   -6.1149    0.0000 C   0  0  0  0  0  0  0  0  0  0  0  0
   -0.2297   -6.7823    0.0000 C   0  0  0  0  0  0  0  0  0  0  0  0
   -1.5396   -6.1149    0.0000 C   0  0  0  0  0  0  0  0  0  0  0  0
   -2.0245   -6.7823    0.0000 C   0  0  0  0  0  0  0  0  0  0  0  0
   -1.6889   -7.5360    0.0000 N   0  0  0  0  0  0  0  0  0  0  0  0
   -2.1739   -8.2034    0.0000 C   0  0  0  0  0  0  0  0  0  0  0  0
   -1.8383   -8.9571    0.0000 N   0  0  0  0  0  0  0  0  0  0  0  0
   -1.0178   -9.0433    0.0000 C   0  0  0  0  0  0  0  0  0  0  0  0
   -0.5329   -8.3759    0.0000 C   0  0  0  0  0  0  0  0  0  0  0  0
    0.2876   -8.4621    0.0000 C   0  0  0  0  0  0  0  0  0  0  0  0
    0.6231   -9.2158    0.0000 C   0  0  0  0  0  0  0  0  0  0  0  0
    0.1382   -9.8833    0.0000 C   0  0  0  0  0  0  0  0  0  0  0  0
    0.4738  -10.6369    0.0000 N   0  0  0  0  0  0  0  0  0  0  0  0
    1.2984  -10.6616    0.0000 C   0  0  0  0  0  0  0  0  0  0  0  0
    1.7933  -11.3217    0.0000 C   0  0  0  0  0  0  0  0  0  0  0  0
    1.5857  -12.1202    0.0000 C   0  0  0  0  0  0  0  0  0  0  0  0
    0.8320  -12.4557    0.0000 N   0  0  0  0  0  0  0  0  0  0  0  0
    0.0998  -12.0757    0.0000 C   0  0  0  0  0  0  0  0  0  0  0  0
   -0.0597  -11.2663    0.0000 C   0  0  0  0  0  0  0  0  0  0  0  0
   -0.6823   -9.7970    0.0000 C   0  0  0  0  0  0  0  0  0  0  0  0
   -2.9943   -8.1172    0.0000 N   0  0  0  0  0  0  0  0  0  0  0  0
   -3.3299   -7.3635    0.0000 C   0  0  0  0  0  0  0  0  0  0  0  0
   -2.8450   -6.6961    0.0000 C   0  0  0  0  0  0  0  0  0  0  0  0
   -3.1805   -5.9424    0.0000 C   0  0  0  0  0  0  0  0  0  0  0  0
   -3.5161   -5.1887    0.0000 N   0  0  0  0  0  0  0  0  0  0  0  0
   -1.7945   -5.3303    0.0000 S   0  0  0  0  0  0  0  0  0  0  0  0
  1  2  1  0  0  0  0
  2  3  1  0  0  0  0
  3  4  4  0  0  0  0
  4  5  4  0  0  0  0
  5  6  1  0  0  0  0
  5  7  4  0  0  0  0
  7  8  1  0  0  0  0
  8  9  4  0  0  0  0
  9 10  4  0  0  0  0
 10 11  1  0  0  0  0
 11 12  1  0  0  0  0
 12 13  4  0  0  0  0
 13 14  4  0  0  0  0
 14 15  4  0  0  0  0
 15 16  4  0  0  0  0
 16 17  1  0  0  0  0
 17 18  1  0  0  0  0
 18 19  1  0  0  0  0
 19 20  1  0  0  0  0
 20 21  1  0  0  0  0
 21 22  1  0  0  0  0
 22 23  1  0  0  0  0
 17 23  1  0  0  0  0
 16 24  4  0  0  0  0
 12 24  4  0  0  0  0
 10 25  4  0  0  0  0
 25 26  4  0  0  0  0
 26 27  4  0  0  0  0
  8 27  4  0  0  0  0
 27 28  1  0  0  0  0
 28 29  3  0  0  0  0
  7 30  4  0  0  0  0
  3 30  4  0  0  0  0
M  END
> <BindingDB_ID/CHEMBL_ID>
CHEMBL2312185

> <pKi>
6.2

> <Target Name>
Cyclin-dependent kinase 2/Cyclin A

> <Target Source Organism>
Homo sapiens

> <Target Uniprot>
P24941

> <Article DOI>
10.1021/jm301475f

$$$$

  Mrv2316 09262419122D          

 27 29  0  0  0  0            999 V2000
   -2.0367    1.0527    0.0000 C   0  0  0  0  0  0  0  0  0  0  0  0
   -2.7512    0.6402    0.0000 N   0  0  0  0  0  0  0  0  0  0  0  0
   -2.7512   -0.1848    0.0000 C   0  0  0  0  0  0  0  0  0  0  0  0
   -2.0837   -0.6697    0.0000 N   0  0  0  0  0  0  0  0  0  0  0  0
   -2.3387   -1.4544    0.0000 C   0  0  0  0  0  0  0  0  0  0  0  0
   -1.8538   -2.1218    0.0000 C   0  0  0  0  0  0  0  0  0  0  0  0
   -3.1637   -1.4544    0.0000 C   0  0  0  0  0  0  0  0  0  0  0  0
   -3.6486   -2.1218    0.0000 C   0  0  0  0  0  0  0  0  0  0  0  0
   -3.3130   -2.8755    0.0000 N   0  0  0  0  0  0  0  0  0  0  0  0
   -3.7980   -3.5429    0.0000 C   0  0  0  0  0  0  0  0  0  0  0  0
   -3.4624   -4.2966    0.0000 N   0  0  0  0  0  0  0  0  0  0  0  0
   -2.6419   -4.3828    0.0000 C   0  0  0  0  0  0  0  0  0  0  0  0
   -2.1570   -3.7154    0.0000 C   0  0  0  0  0  0  0  0  0  0  0  0
   -1.3365   -3.8016    0.0000 C   0  0  0  0  0  0  0  0  0  0  0  0
   -1.0010   -4.5553    0.0000 C   0  0  0  0  0  0  0  0  0  0  0  0
   -1.4859   -5.2227    0.0000 C   0  0  0  0  0  0  0  0  0  0  0  0
   -1.1503   -5.9764    0.0000 S   0  0  0  0  0  0  0  0  0  0  0  0
   -0.8148   -6.7301    0.0000 N   0  0  0  0  0  0  0  0  0  0  0  0
   -1.9040   -6.3120    0.0000 O   0  0  0  0  0  0  0  0  0  0  0  0
   -0.3967   -5.6409    0.0000 O   0  0  0  0  0  0  0  0  0  0  0  0
   -2.3064   -5.1365    0.0000 C   0  0  0  0  0  0  0  0  0  0  0  0
   -4.6184   -3.4567    0.0000 N   0  0  0  0  0  0  0  0  0  0  0  0
   -4.9540   -2.7030    0.0000 C   0  0  0  0  0  0  0  0  0  0  0  0
   -4.4691   -2.0356    0.0000 C   0  0  0  0  0  0  0  0  0  0  0  0
   -4.8046   -1.2819    0.0000 C   0  0  0  0  0  0  0  0  0  0  0  0
   -5.1402   -0.5282    0.0000 N   0  0  0  0  0  0  0  0  0  0  0  0
   -3.4186   -0.6697    0.0000 S   0  0  0  0  0  0  0  0  0  0  0  0
  1  2  1  0  0  0  0
  2  3  1  0  0  0  0
  3  4  4  0  0  0  0
  4  5  4  0  0  0  0
  5  6  1  0  0  0  0
  5  7  4  0  0  0  0
  7  8  1  0  0  0  0
  8  9  4  0  0  0  0
  9 10  4  0  0  0  0
 10 11  1  0  0  0  0
 11 12  1  0  0  0  0
 12 13  4  0  0  0  0
 13 14  4  0  0  0  0
 14 15  4  0  0  0  0
 15 16  4  0  0  0  0
 16 17  1  0  0  0  0
 17 18  1  0  0  0  0
 17 19  2  0  0  0  0
 17 20  2  0  0  0  0
 16 21  4  0  0  0  0
 12 21  4  0  0  0  0
 10 22  4  0  0  0  0
 22 23  4  0  0  0  0
 23 24  4  0  0  0  0
  8 24  4  0  0  0  0
 24 25  1  0  0  0  0
 25 26  3  0  0  0  0
  7 27  4  0  0  0  0
  3 27  4  0  0  0  0
M  END
> <BindingDB_ID/CHEMBL_ID>
CHEMBL2312183

> <pKi>
8.4

> <Target Name>
Cyclin-dependent kinase 2/Cyclin A

> <Target Source Organism>
Homo sapiens

> <Target Uniprot>
P24941

> <Article DOI>
10.1021/jm301475f

$$$$

  Mrv2316 09262419122D          

 33 36  0  0  0  0            999 V2000
   -0.4126   -3.6078    0.0000 C   0  0  0  0  0  0  0  0  0  0  0  0
   -1.1271   -4.0203    0.0000 N   0  0  0  0  0  0  0  0  0  0  0  0
   -1.1271   -4.8453    0.0000 C   0  0  0  0  0  0  0  0  0  0  0  0
   -0.4596   -5.3303    0.0000 N   0  0  0  0  0  0  0  0  0  0  0  0
   -0.7146   -6.1149    0.0000 C   0  0  0  0  0  0  0  0  0  0  0  0
   -0.2297   -6.7823    0.0000 C   0  0  0  0  0  0  0  0  0  0  0  0
   -1.5396   -6.1149    0.0000 C   0  0  0  0  0  0  0  0  0  0  0  0
   -2.0245   -6.7823    0.0000 C   0  0  0  0  0  0  0  0  0  0  0  0
   -1.6889   -7.5360    0.0000 N   0  0  0  0  0  0  0  0  0  0  0  0
   -2.1739   -8.2034    0.0000 C   0  0  0  0  0  0  0  0  0  0  0  0
   -1.8383   -8.9571    0.0000 N   0  0  0  0  0  0  0  0  0  0  0  0
   -1.0178   -9.0433    0.0000 C   0  0  0  0  0  0  0  0  0  0  0  0
   -0.5329   -8.3759    0.0000 C   0  0  0  0  0  0  0  0  0  0  0  0
    0.2876   -8.4621    0.0000 C   0  0  0  0  0  0  0  0  0  0  0  0
    0.6231   -9.2158    0.0000 C   0  0  0  0  0  0  0  0  0  0  0  0
    0.1382   -9.8833    0.0000 C   0  0  0  0  0  0  0  0  0  0  0  0
    0.4738  -10.6369    0.0000 N   0  0  0  0  0  0  0  0  0  0  0  0
    1.2984  -10.6616    0.0000 C   0  0  0  0  0  0  0  0  0  0  0  0
    1.7933  -11.3217    0.0000 C   0  0  0  0  0  0  0  0  0  0  0  0
    1.5857  -12.1202    0.0000 C   0  0  0  0  0  0  0  0  0  0  0  0
    0.8320  -12.4557    0.0000 N   0  0  0  0  0  0  0  0  0  0  0  0
    0.8073  -13.2804    0.0000 C   0  0  0  0  0  0  0  0  0  0  0  0
    1.5092  -13.7141    0.0000 C   0  0  0  0  0  0  0  0  0  0  0  0
    0.0808  -13.6713    0.0000 O   0  0  0  0  0  0  0  0  0  0  0  0
    0.0998  -12.0757    0.0000 C   0  0  0  0  0  0  0  0  0  0  0  0
   -0.0597  -11.2663    0.0000 C   0  0  0  0  0  0  0  0  0  0  0  0
   -0.6823   -9.7970    0.0000 C   0  0  0  0  0  0  0  0  0  0  0  0
   -2.9943   -8.1172    0.0000 N   0  0  0  0  0  0  0  0  0  0  0  0
   -3.3299   -7.3635    0.0000 C   0  0  0  0  0  0  0  0  0  0  0  0
   -2.8450   -6.6961    0.0000 C   0  0  0  0  0  0  0  0  0  0  0  0
   -3.1805   -5.9424    0.0000 C   0  0  0  0  0  0  0  0  0  0  0  0
   -3.5161   -5.1887    0.0000 N   0  0  0  0  0  0  0  0  0  0  0  0
   -1.7945   -5.3303    0.0000 S   0  0  0  0  0  0  0  0  0  0  0  0
  1  2  1  0  0  0  0
  2  3  1  0  0  0  0
  3  4  4  0  0  0  0
  4  5  4  0  0  0  0
  5  6  1  0  0  0  0
  5  7  4  0  0  0  0
  7  8  1  0  0  0  0
  8  9  4  0  0  0  0
  9 10  4  0  0  0  0
 10 11  1  0  0  0  0
 11 12  1  0  0  0  0
 12 13  4  0  0  0  0
 13 14  4  0  0  0  0
 14 15  4  0  0  0  0
 15 16  4  0  0  0  0
 16 17  1  0  0  0  0
 17 18  1  0  0  0  0
 18 19  1  0  0  0  0
 19 20  1  0  0  0  0
 20 21  1  0  0  0  0
 21 22  1  0  0  0  0
 22 23  1  0  0  0  0
 22 24  2  0  0  0  0
 21 25  1  0  0  0  0
 25 26  1  0  0  0  0
 17 26  1  0  0  0  0
 16 27  4  0  0  0  0
 12 27  4  0  0  0  0
 10 28  4  0  0  0  0
 28 29  4  0  0  0  0
 29 30  4  0  0  0  0
  8 30  4  0  0  0  0
 30 31  1  0  0  0  0
 31 32  3  0  0  0  0
  7 33  4  0  0  0  0
  3 33  4  0  0  0  0
M  END
> <BindingDB_ID/CHEMBL_ID>
CHEMBL2348651

> <pKi>
6.9

> <Target Name>
Cyclin-dependent kinase 2/Cyclin A

> <Target Source Organism>
Homo sapiens

> <Target Uniprot>
P24941

> <Article DOI>
10.1021/jm301475f

$$$$

  Mrv2316 09262419122D          

 33 36  0  0  0  0            999 V2000
    0.8212   -4.5991    0.0000 C   0  0  0  0  0  0  0  0  0  0  0  0
    0.1067   -5.0116    0.0000 N   0  0  0  0  0  0  0  0  0  0  0  0
    0.1067   -5.8366    0.0000 C   0  0  0  0  0  0  0  0  0  0  0  0
    0.7741   -6.3215    0.0000 N   0  0  0  0  0  0  0  0  0  0  0  0
    0.5192   -7.1062    0.0000 C   0  0  0  0  0  0  0  0  0  0  0  0
    1.0041   -7.7736    0.0000 C   0  0  0  0  0  0  0  0  0  0  0  0
   -0.3058   -7.1062    0.0000 C   0  0  0  0  0  0  0  0  0  0  0  0
   -0.7907   -7.7736    0.0000 C   0  0  0  0  0  0  0  0  0  0  0  0
   -0.4552   -8.5273    0.0000 N   0  0  0  0  0  0  0  0  0  0  0  0
   -0.9401   -9.1947    0.0000 C   0  0  0  0  0  0  0  0  0  0  0  0
   -0.6045   -9.9484    0.0000 N   0  0  0  0  0  0  0  0  0  0  0  0
    0.2160  -10.0346    0.0000 C   0  0  0  0  0  0  0  0  0  0  0  0
    0.7009   -9.3672    0.0000 C   0  0  0  0  0  0  0  0  0  0  0  0
    1.5214   -9.4534    0.0000 C   0  0  0  0  0  0  0  0  0  0  0  0
    1.8569  -10.2071    0.0000 C   0  0  0  0  0  0  0  0  0  0  0  0
    2.6774  -10.2933    0.0000 C   0  0  0  0  0  0  0  0  0  0  0  0
    1.3720  -10.8745    0.0000 C   0  0  0  0  0  0  0  0  0  0  0  0
    1.7076  -11.6282    0.0000 S   0  0  0  0  0  0  0  0  0  0  0  0
    0.9539  -11.9638    0.0000 O   0  0  0  0  0  0  0  0  0  0  0  0
    2.4612  -11.2926    0.0000 O   0  0  0  0  0  0  0  0  0  0  0  0
    2.0431  -12.3819    0.0000 N   0  0  0  0  0  0  0  0  0  0  0  0
    2.8636  -12.4681    0.0000 C   0  0  0  0  0  0  0  0  0  0  0  0
    3.1991  -13.2218    0.0000 C   0  0  0  0  0  0  0  0  0  0  0  0
    2.7142  -13.8892    0.0000 O   0  0  0  0  0  0  0  0  0  0  0  0
    1.8937  -13.8030    0.0000 C   0  0  0  0  0  0  0  0  0  0  0  0
    1.5582  -13.0493    0.0000 C   0  0  0  0  0  0  0  0  0  0  0  0
    0.5515  -10.7883    0.0000 C   0  0  0  0  0  0  0  0  0  0  0  0
   -1.7606   -9.1085    0.0000 N   0  0  0  0  0  0  0  0  0  0  0  0
   -2.0961   -8.3548    0.0000 C   0  0  0  0  0  0  0  0  0  0  0  0
   -1.6112   -7.6874    0.0000 C   0  0  0  0  0  0  0  0  0  0  0  0
   -1.9468   -6.9337    0.0000 C   0  0  0  0  0  0  0  0  0  0  0  0
   -2.2823   -6.1800    0.0000 N   0  0  0  0  0  0  0  0  0  0  0  0
   -0.5607   -6.3215    0.0000 S   0  0  0  0  0  0  0  0  0  0  0  0
  1  2  1  0  0  0  0
  2  3  1  0  0  0  0
  3  4  4  0  0  0  0
  4  5  4  0  0  0  0
  5  6  1  0  0  0  0
  5  7  4  0  0  0  0
  7  8  1  0  0  0  0
  8  9  4  0  0  0  0
  9 10  4  0  0  0  0
 10 11  1  0  0  0  0
 11 12  1  0  0  0  0
 12 13  4  0  0  0  0
 13 14  4  0  0  0  0
 14 15  4  0  0  0  0
 15 16  1  0  0  0  0
 15 17  4  0  0  0  0
 17 18  1  0  0  0  0
 18 19  2  0  0  0  0
 18 20  2  0  0  0  0
 18 21  1  0  0  0  0
 21 22  1  0  0  0  0
 22 23  1  0  0  0  0
 23 24  1  0  0  0  0
 24 25  1  0  0  0  0
 25 26  1  0  0  0  0
 21 26  1  0  0  0  0
 17 27  4  0  0  0  0
 12 27  4  0  0  0  0
 10 28  4  0  0  0  0
 28 29  4  0  0  0  0
 29 30  4  0  0  0  0
  8 30  4  0  0  0  0
 30 31  1  0  0  0  0
 31 32  3  0  0  0  0
  7 33  4  0  0  0  0
  3 33  4  0  0  0  0
M  END
> <BindingDB_ID/CHEMBL_ID>
CHEMBL2312189

> <pKi>
6.9

> <Target Name>
Cyclin-dependent kinase 2/Cyclin A

> <Target Source Organism>
Homo sapiens

> <Target Uniprot>
P24941

> <Article DOI>
10.1021/jm301495v

$$$$

  Mrv2316 09262419122D          

 24 26  0  0  0  0            999 V2000
    2.8579   -2.4750    0.0000 C   0  0  0  0  0  0  0  0  0  0  0  0
    2.1434   -2.8875    0.0000 N   0  0  0  0  0  0  0  0  0  0  0  0
    2.1434   -3.7125    0.0000 C   0  0  0  0  0  0  0  0  0  0  0  0
    2.8109   -4.1974    0.0000 N   0  0  0  0  0  0  0  0  0  0  0  0
    2.5559   -4.9820    0.0000 C   0  0  0  0  0  0  0  0  0  0  0  0
    3.0408   -5.6495    0.0000 C   0  0  0  0  0  0  0  0  0  0  0  0
    1.7309   -4.9820    0.0000 C   0  0  0  0  0  0  0  0  0  0  0  0
    1.2460   -5.6495    0.0000 C   0  0  0  0  0  0  0  0  0  0  0  0
    1.5815   -6.4032    0.0000 N   0  0  0  0  0  0  0  0  0  0  0  0
    1.0966   -7.0706    0.0000 C   0  0  0  0  0  0  0  0  0  0  0  0
    1.4322   -7.8243    0.0000 N   0  0  0  0  0  0  0  0  0  0  0  0
    0.9473   -8.4917    0.0000 C   0  0  0  0  0  0  0  0  0  0  0  0
    1.2828   -9.2454    0.0000 C   0  0  0  0  0  0  0  0  0  0  0  0
    0.7979   -9.9128    0.0000 C   0  0  0  0  0  0  0  0  0  0  0  0
   -0.0226   -9.8266    0.0000 C   0  0  0  0  0  0  0  0  0  0  0  0
   -0.3581   -9.0729    0.0000 C   0  0  0  0  0  0  0  0  0  0  0  0
   -1.1786   -8.9867    0.0000 O   0  0  0  0  0  0  0  0  0  0  0  0
    0.1268   -8.4055    0.0000 C   0  0  0  0  0  0  0  0  0  0  0  0
    0.2761   -6.9844    0.0000 N   0  0  0  0  0  0  0  0  0  0  0  0
   -0.0594   -6.2307    0.0000 C   0  0  0  0  0  0  0  0  0  0  0  0
    0.4255   -5.5632    0.0000 C   0  0  0  0  0  0  0  0  0  0  0  0
    0.0900   -4.8096    0.0000 C   0  0  0  0  0  0  0  0  0  0  0  0
   -0.2456   -4.0559    0.0000 N   0  0  0  0  0  0  0  0  0  0  0  0
    1.4760   -4.1974    0.0000 S   0  0  0  0  0  0  0  0  0  0  0  0
  1  2  1  0  0  0  0
  2  3  1  0  0  0  0
  3  4  4  0  0  0  0
  4  5  4  0  0  0  0
  5  6  1  0  0  0  0
  5  7  4  0  0  0  0
  7  8  1  0  0  0  0
  8  9  4  0  0  0  0
  9 10  4  0  0  0  0
 10 11  1  0  0  0  0
 11 12  1  0  0  0  0
 12 13  4  0  0  0  0
 13 14  4  0  0  0  0
 14 15  4  0  0  0  0
 15 16  4  0  0  0  0
 16 17  1  0  0  0  0
 16 18  4  0  0  0  0
 12 18  4  0  0  0  0
 10 19  4  0  0  0  0
 19 20  4  0  0  0  0
 20 21  4  0  0  0  0
  8 21  4  0  0  0  0
 21 22  1  0  0  0  0
 22 23  3  0  0  0  0
  7 24  4  0  0  0  0
  3 24  4  0  0  0  0
M  END
> <BindingDB_ID/CHEMBL_ID>
CHEMBL2312188

> <pKi>
7.9

> <Target Name>
Cyclin-dependent kinase 2/Cyclin A

> <Target Source Organism>
Homo sapiens

> <Target Uniprot>
P24941

> <Article DOI>
10.1021/jm301495v

$$$$

  Mrv2316 09262419122D          

 31 34  0  0  0  0            999 V2000
    5.7158   -2.4750    0.0000 C   0  0  0  0  0  0  0  0  0  0  0  0
    5.0013   -2.8875    0.0000 N   0  0  0  0  0  0  0  0  0  0  0  0
    5.0013   -3.7125    0.0000 C   0  0  0  0  0  0  0  0  0  0  0  0
    5.6687   -4.1974    0.0000 N   0  0  0  0  0  0  0  0  0  0  0  0
    5.4138   -4.9820    0.0000 C   0  0  0  0  0  0  0  0  0  0  0  0
    5.8987   -5.6495    0.0000 C   0  0  0  0  0  0  0  0  0  0  0  0
    4.5888   -4.9820    0.0000 C   0  0  0  0  0  0  0  0  0  0  0  0
    4.1039   -5.6495    0.0000 C   0  0  0  0  0  0  0  0  0  0  0  0
    4.4394   -6.4032    0.0000 N   0  0  0  0  0  0  0  0  0  0  0  0
    3.9545   -7.0706    0.0000 C   0  0  0  0  0  0  0  0  0  0  0  0
    4.2901   -7.8243    0.0000 N   0  0  0  0  0  0  0  0  0  0  0  0
    5.1105   -7.9105    0.0000 C   0  0  0  0  0  0  0  0  0  0  0  0
    5.5955   -7.2431    0.0000 C   0  0  0  0  0  0  0  0  0  0  0  0
    6.4160   -7.3293    0.0000 C   0  0  0  0  0  0  0  0  0  0  0  0
    6.7515   -8.0830    0.0000 C   0  0  0  0  0  0  0  0  0  0  0  0
    6.2666   -8.7504    0.0000 C   0  0  0  0  0  0  0  0  0  0  0  0
    6.6021   -9.5041    0.0000 C   0  0  0  0  0  0  0  0  0  0  0  0
    7.4226   -9.5903    0.0000 O   0  0  0  0  0  0  0  0  0  0  0  0
    6.1172  -10.1715    0.0000 N   0  0  0  0  0  0  0  0  0  0  0  0
    6.4528  -10.9252    0.0000 C   0  0  0  0  0  0  0  0  0  0  0  0
    5.9679  -11.5926    0.0000 C   0  0  0  0  0  0  0  0  0  0  0  0
    5.1474  -11.5064    0.0000 O   0  0  0  0  0  0  0  0  0  0  0  0
    4.8118  -10.7527    0.0000 C   0  0  0  0  0  0  0  0  0  0  0  0
    5.2967  -10.0853    0.0000 C   0  0  0  0  0  0  0  0  0  0  0  0
    5.4461   -8.6642    0.0000 C   0  0  0  0  0  0  0  0  0  0  0  0
    3.1340   -6.9844    0.0000 N   0  0  0  0  0  0  0  0  0  0  0  0
    2.7985   -6.2307    0.0000 C   0  0  0  0  0  0  0  0  0  0  0  0
    3.2834   -5.5632    0.0000 C   0  0  0  0  0  0  0  0  0  0  0  0
    2.9478   -4.8096    0.0000 C   0  0  0  0  0  0  0  0  0  0  0  0
    2.6123   -4.0559    0.0000 N   0  0  0  0  0  0  0  0  0  0  0  0
    4.3339   -4.1974    0.0000 S   0  0  0  0  0  0  0  0  0  0  0  0
  1  2  1  0  0  0  0
  2  3  1  0  0  0  0
  3  4  4  0  0  0  0
  4  5  4  0  0  0  0
  5  6  1  0  0  0  0
  5  7  4  0  0  0  0
  7  8  1  0  0  0  0
  8  9  4  0  0  0  0
  9 10  4  0  0  0  0
 10 11  1  0  0  0  0
 11 12  1  0  0  0  0
 12 13  4  0  0  0  0
 13 14  4  0  0  0  0
 14 15  4  0  0  0  0
 15 16  4  0  0  0  0
 16 17  1  0  0  0  0
 17 18  2  0  0  0  0
 17 19  1  0  0  0  0
 19 20  1  0  0  0  0
 20 21  1  0  0  0  0
 21 22  1  0  0  0  0
 22 23  1  0  0  0  0
 23 24  1  0  0  0  0
 19 24  1  0  0  0  0
 16 25  4  0  0  0  0
 12 25  4  0  0  0  0
 10 26  4  0  0  0  0
 26 27  4  0  0  0  0
 27 28  4  0  0  0  0
  8 28  4  0  0  0  0
 28 29  1  0  0  0  0
 29 30  3  0  0  0  0
  7 31  4  0  0  0  0
  3 31  4  0  0  0  0
M  END
> <BindingDB_ID/CHEMBL_ID>
CHEMBL2312191

> <pKi>
6.8

> <Target Name>
Cyclin-dependent kinase 2/Cyclin A

> <Target Source Organism>
Homo sapiens

> <Target Uniprot>
P24941

> <Article DOI>
10.1021/jm301495v

$$$$

  Mrv2316 09262419122D          

 23 25  0  0  0  0            999 V2000
   -0.7145   -2.8875    0.0000 C   0  0  0  0  0  0  0  0  0  0  0  0
   -0.7145   -3.7125    0.0000 C   0  0  0  0  0  0  0  0  0  0  0  0
   -0.0470   -4.1974    0.0000 C   0  0  0  0  0  0  0  0  0  0  0  0
   -0.3020   -4.9820    0.0000 S   0  0  0  0  0  0  0  0  0  0  0  0
   -1.1270   -4.9820    0.0000 C   0  0  0  0  0  0  0  0  0  0  0  0
   -1.3819   -4.1974    0.0000 N   0  0  0  0  0  0  0  0  0  0  0  0
   -1.6119   -5.6495    0.0000 N   0  0  0  0  0  0  0  0  0  0  0  0
    0.7376   -3.9425    0.0000 C   0  0  0  0  0  0  0  0  0  0  0  0
    0.9091   -3.1355    0.0000 C   0  0  0  0  0  0  0  0  0  0  0  0
    1.6937   -2.8806    0.0000 C   0  0  0  0  0  0  0  0  0  0  0  0
    2.3068   -3.4326    0.0000 N   0  0  0  0  0  0  0  0  0  0  0  0
    2.1353   -4.2396    0.0000 C   0  0  0  0  0  0  0  0  0  0  0  0
    1.3507   -4.4945    0.0000 N   0  0  0  0  0  0  0  0  0  0  0  0
    2.7484   -4.7916    0.0000 N   0  0  0  0  0  0  0  0  0  0  0  0
    3.5330   -4.5367    0.0000 C   0  0  0  0  0  0  0  0  0  0  0  0
    3.7045   -3.7297    0.0000 C   0  0  0  0  0  0  0  0  0  0  0  0
    4.4892   -3.4748    0.0000 C   0  0  0  0  0  0  0  0  0  0  0  0
    5.1023   -4.0268    0.0000 C   0  0  0  0  0  0  0  0  0  0  0  0
    4.9307   -4.8338    0.0000 C   0  0  0  0  0  0  0  0  0  0  0  0
    4.1461   -5.0887    0.0000 C   0  0  0  0  0  0  0  0  0  0  0  0
    5.5438   -5.3858    0.0000 N   0  3  0  0  0  0  0  0  0  0  0  0
    6.3285   -5.1309    0.0000 O   0  0  0  0  0  0  0  0  0  0  0  0
    5.3723   -6.1928    0.0000 O   0  5  0  0  0  0  0  0  0  0  0  0
  1  2  1  0  0  0  0
  2  3  4  0  0  0  0
  3  4  4  0  0  0  0
  4  5  4  0  0  0  0
  5  6  4  0  0  0  0
  2  6  4  0  0  0  0
  5  7  1  0  0  0  0
  3  8  1  0  0  0  0
  8  9  4  0  0  0  0
  9 10  4  0  0  0  0
 10 11  4  0  0  0  0
 11 12  4  0  0  0  0
 12 13  4  0  0  0  0
  8 13  4  0  0  0  0
 12 14  1  0  0  0  0
 14 15  1  0  0  0  0
 15 16  4  0  0  0  0
 16 17  4  0  0  0  0
 17 18  4  0  0  0  0
 18 19  4  0  0  0  0
 19 20  4  0  0  0  0
 15 20  4  0  0  0  0
 19 21  1  0  0  0  0
 21 22  2  0  0  0  0
 21 23  1  0  0  0  0
M  CHG  2  21   1  23  -1
M  END
> <BindingDB_ID/CHEMBL_ID>
CHEMBL298445

> <pKi>
8.7

> <Target Name>
Cyclin-dependent kinase 2/Cyclin A

> <Target Source Organism>
Homo sapiens

> <Target Uniprot>
P24941

> <Article DOI>
10.1016/j.chembiol.2005.11.011

$$$$
